Geom Title=geo2
Program Version=6.60
Viewing Rectangle= 506444.297899956 , 512648.74965092 , 5063258.68700944 , 5052699.96016349 

River Reach=River 1         ,Reach 1         
Reach XY= 153 
507813.7391623315062778.74488008507895.2516483825062733.33291312
507934.7968842385062692.78864063507970.6243270675062664.54107554
507959.5763879485062617.78119845507949.8095886115062534.11756801
507953.6096137185062457.85127365 507980.820927975062412.36898465
507999.4166201845062348.42230892507986.0480646975062186.01549859
507947.9517293535062055.55991865507872.809819981 5061936.1275551
507741.9096355615061985.17489837507613.5868899575061946.87796408
507534.6062474035061933.24876925507502.5862400945061872.92563385
507489.092765643 5061802.7818117507543.4402157655061773.31973692
507538.6188802165061677.34811008507456.0463458485061567.74752948
 507530.214633555061481.71082569507515.4431412675061447.24230059
507551.3503811795061357.46695015507571.1209366775061341.49568372
507584.7522856085061298.44790413507628.0004451645061264.04899734
  507630.55374735061195.14815732507692.3505142555061136.16298923
507705.9694529945061104.18812903507747.9285226875061115.31422058
507778.8507509945061067.36499143507820.8207495095061069.87844218
507975.2783812385060956.87090588508506.6647192685060561.34589106
508541.2487797985060550.31814178508736.4888831865060427.53134891
508772.3589535055060380.81928182508820.5542737285060349.50703826
508854.6066561485060279.41064037508873.7613885845060267.13171505
508891.6736332255060260.38883987508902.1937503225060242.55985396
508881.8682255685060209.91927683508886.8332335925060191.46689219
508951.0956033265060150.33251373508967.1925305155060118.35890978
508977.1338593755060074.06977143509019.1510384315060048.28660004
509043.9049455955060007.09519319509071.1151904895059975.13725701
509102.0011405635059962.87551343509152.7096535165059905.10764513
509185.4518418755059890.38751834509200.916921476 5059869.4885279
509239.9234189155059793.85796038509256.6227656955059773.57597172
509289.3347157655059779.77819977509324.5575323265059758.29325736
509367.7853073755059750.97375119509380.1570173585059734.99298144
509437.8382359255059560.31500242509450.239418407 5059525.2571201
 509481.786929635059485.92045562509514.5452461225059462.58565896
 509580.003045225059454.68584369509589.3020726755059430.08453747
509629.4871856565059395.68446719 509657.909342745059382.18973147
509664.1245424385059355.73727936509696.3175252855059299.78574061
509743.3659987795059220.47145529509728.6071035275059182.29275911
509760.7716927645059145.41798101 509763.295421885059110.95836058
509788.0396035785059081.45679792509788.2424715135058952.21642809
509773.5468727385058873.41679667509736.5467894955058842.58654675
509745.2202488335058824.13660045 509773.745575485058746.63397163
509741.9115068325058570.56061235  509796.3190755  5058527.562398
509786.5259481335058472.15359493509789.0848581225058415.53271245
509769.4362396115058344.10456568509800.3954749675058291.22010167
509864.6532729145058269.16325353509937.6001085085058220.03844268
510015.5694463495058120.44973448510008.3307706165058013.33675128
 510004.811049725057897.61033654510066.6569977485057842.31083975
510076.5401216495057841.09570224510116.0127629975057873.16796513
510135.8049411245057854.73374235510150.7468107865057780.89209102
510196.5682495035057707.10000232510230.0894088585057602.50873506
510248.8599537655057454.80083496510298.4922521215057319.45236038
510254.1994590215057212.26435781510228.3315200545057167.89789566
510203.6058751965057180.16966494510186.3522545095057155.51694083
510273.1318653795056967.27835017510297.9946369525056872.51113653
 510369.809748895056772.89522279  510395.85679365056710.14173426
510381.204463275 5056606.6859041510403.5563776485056537.76788901
 510449.422884075056444.26119882510519.8272267575056452.99905545
510610.1361906595056380.50086209510565.8045014215056295.45976642
510573.2756038765056260.99318164510601.6806131065056267.19838898
 510619.058680095056219.20301146510726.745054975  5056102.401837
510750.2998988885056055.64762263 510780.096426615055971.96018591
510848.2101307445055879.71789769510885.392021927 5055813.2823716
510877.0114515065055659.32927959510783.2545907545055574.19096097
510769.7332027765055533.52668275510719.1243883825055503.88236784
510715.6057159595055394.26713171510663.8103716355055335.06257752
510636.7123587985055284.52110917 510675.099591295055236.55419581
510737.0794727385055122.12011481510754.5381156415055029.77737784
510775.6895423715054946.06134672510714.0622799395054853.57991808
510737.6767806045054774.79242438510655.1337878095054626.84575315
510657.7440950095054545.55582809510682.6011679025054463.07111318
510703.8548654945054320.22204949510734.9520001345054203.25474362
510776.0011408215054049.34753251 510825.590591615053960.74030374
510836.7907317165053916.41276347 510819.618034285053841.23881136
510824.820099327 5053692.1886795 510873.080580925053659.01088881
510908.9990202045053615.95634651510920.2520519565053542.06017165
510943.8028347145053503.91119784 510989.719095245053399.27557998
511057.787516481 5053350.1168707 511099.930793335053283.66457579
511135.9166381315053204.88084954
Rch Text X Y=508644.2835313,5060385.2788725
Reverse River Text= 0 

Type RM Length L Ch R = 1 ,11943   ,1345,1345,1345
XS GIS Cut Line=2
 508689.535765685062417.53894707506726.3184340915062489.32924262
Node Last Edited Time=Oct/10/2025 11:37:15
#Sta/Elev= 0 
#Mann= 1 ,-1,0
       0   -9999       0
Bank Sta=723,733.4
XS Rating Curve= 0 ,0
XS HTab Horizontal Distribution= 5 , 5 , 5 
Exp/Cntr(USF)=0,0
Exp/Cntr=0.3,0.1

Type RM Length L Ch R = 1 ,10597.55,1457,1457,1457
XS GIS Cut Line=2
508704.2436091365061580.84060885506727.3384759895061544.65152074
Node Last Edited Time=Oct/10/2025 11:37:15
#Sta/Elev= 0 
#Mann= 1 ,-1,0
       0   -9999       0
Bank Sta=1234.1,1246.2
XS Rating Curve= 0 ,0
XS HTab Horizontal Distribution= 5 , 5 , 5 
Exp/Cntr(USF)=0,0
Exp/Cntr=0.3,0.1

Type RM Length L Ch R = 1 ,9140.589,1451.8,1451.8,1451.8
XS GIS Cut Line=2
509219.0795867275061385.88069785507528.4447096835059723.28498963
Node Last Edited Time=Oct/10/2025 11:37:15
#Sta/Elev= 0 
#Mann= 1 ,-1,0
       0   -9999       0
Bank Sta=1094.7,1104.9
XS Rating Curve= 0 ,0
XS HTab Horizontal Distribution= 5 , 5 , 5 
Exp/Cntr(USF)=0,0
Exp/Cntr=0.3,0.1

Type RM Length L Ch R = 1 ,7688.800,1441.8,1441.8,1441.8
XS GIS Cut Line=2
510601.5826528745060618.71477622508152.8437812775058697.95932723
Node Last Edited Time=Oct/10/2025 11:37:15
#Sta/Elev= 0 
#Mann= 1 ,-1,0
       0   -9999       0
Bank Sta=1523.2,1531.9
XS Rating Curve= 0 ,0
XS HTab Horizontal Distribution= 5 , 5 , 5 
Exp/Cntr(USF)=0,0
Exp/Cntr=0.3,0.1

Type RM Length L Ch R = 1 ,6247.048,1399.3,1399.3,1399.3
XS GIS Cut Line=2
511349.0165100335059202.53252368508695.7574858655057956.00763447
Node Last Edited Time=Oct/10/2025 11:37:15
#Sta/Elev= 0 
#Mann= 1 ,-1,0
       0   -9999       0
Bank Sta=1721.9,1730.4
XS Rating Curve= 0 ,0
XS HTab Horizontal Distribution= 5 , 5 , 5 
Exp/Cntr(USF)=0,0
Exp/Cntr=0.3,0.1

Type RM Length L Ch R = 1 ,4847.731,1327.3,1327.3,1327.3
XS GIS Cut Line=2
511757.7853669185057934.01937637509036.075576998 5056849.0520926
Node Last Edited Time=Oct/10/2025 11:37:15
#Sta/Elev= 0 
#Mann= 1 ,-1,0
       0   -9999       0
Bank Sta=1578.2,1586.4
XS Rating Curve= 0 ,0
XS HTab Horizontal Distribution= 5 , 5 , 5 
Exp/Cntr(USF)=0,0
Exp/Cntr=0.3,0.1

Type RM Length L Ch R = 1 ,3520.388,592.2,592.2,592.2
XS GIS Cut Line=2
512112.3568211295056746.21168421508983.3686733835055808.88576815
Node Last Edited Time=Oct/10/2025 11:37:15
#Sta/Elev= 0 
#Mann= 1 ,-1,0
       0   -9999       0
Bank Sta=1607.8,1615.8
XS Rating Curve= 0 ,0
XS HTab Horizontal Distribution= 5 , 5 , 5 
Exp/Cntr(USF)=0,0
Exp/Cntr=0.3,0.1

Type RM Length L Ch R = 1 ,2928.232,627.6,627.6,627.6
XS GIS Cut Line=2
511842.7358886325056006.15335573509485.2540212975055536.06937043
Node Last Edited Time=Oct/10/2025 11:37:15
#Sta/Elev= 0 
#Mann= 1 ,-1,0
       0   -9999       0
Bank Sta=972.8,981.8
XS Rating Curve= 0 ,0
XS HTab Horizontal Distribution= 5 , 5 , 5 
Exp/Cntr(USF)=0,0
Exp/Cntr=0.3,0.1

Type RM Length L Ch R = 1 ,2300.599,497.5,497.5,497.5
XS GIS Cut Line=2
511504.9238260215055458.40804208 509716.341924045055104.10987064
Node Last Edited Time=Oct/10/2025 11:37:15
#Sta/Elev= 0 
#Mann= 1 ,-1,0
       0   -9999       0
Bank Sta=878.3,888.9
XS Rating Curve= 0 ,0
XS HTab Horizontal Distribution= 5 , 5 , 5 
Exp/Cntr(USF)=0,0
Exp/Cntr=0.3,0.1

Type RM Length L Ch R = 1 ,1803.052,549.6,549.6,549.6
XS GIS Cut Line=2
511390.5281774375055012.36689208509832.3233427965054617.90160062
Node Last Edited Time=Oct/10/2025 11:37:15
#Sta/Elev= 0 
#Mann= 1 ,-1,0
       0   -9999       0
Bank Sta=690.2,698.3
XS Rating Curve= 0 ,0
XS HTab Horizontal Distribution= 5 , 5 , 5 
Exp/Cntr(USF)=0,0
Exp/Cntr=0.3,0.1

Type RM Length L Ch R = 1 ,1253.448,517.6,517.6,517.6
XS GIS Cut Line=2
 511194.986329255054451.30165296509928.008876587   5054118.11308
Node Last Edited Time=Oct/10/2025 11:37:15
#Sta/Elev= 0 
#Mann= 1 ,-1,0
       0   -9999       0
Bank Sta=504.2,512.1
XS Rating Curve= 0 ,0
XS HTab Horizontal Distribution= 5 , 5 , 5 
Exp/Cntr(USF)=0,0
Exp/Cntr=0.3,0.1

Type RM Length L Ch R = 1 ,735.8563,,,
XS GIS Cut Line=2
511148.4441755915053944.50830951510172.8695435975053605.01387023
Node Last Edited Time=Oct/10/2025 11:37:15
#Sta/Elev= 0 
#Mann= 1 ,-1,0
       0   -9999       0
Bank Sta=343.7,351.8
XS Rating Curve= 0 ,0
XS HTab Horizontal Distribution= 5 , 5 , 5 
Exp/Cntr(USF)=0,0
Exp/Cntr=0.3,0.1

River Reach=River 2         ,Reach 2         
Reach XY= 49 
511753.9121008595055850.57061783511751.581295136 5055776.0608609
511753.6444777535055664.61291717511738.8859143375055628.25511711
511739.5604477435055598.08382949511779.2247112165055531.65525897
511782.4055268795055483.01489095511760.8206430055055462.65344148
511732.4663393185055428.11624599511732.5542934195055381.31660883
511741.3473108875055304.97481931511753.9054878415055197.84891871
511738.509450332 5055171.3401886511669.3935844295055127.48797735
511655.2292505045055102.82891056511622.0812712655054986.99256749
  511560.47604475054889.57666339511501.4220602225054747.82344282
511446.5246683685054696.60671559511393.4328428255054671.25946543
511360.177973237  5054610.228584511341.7352035035054558.46222664
511328.9202775375054469.75311926 511343.838380385054421.12562963
511335.3229129535054346.58787754511313.8029291995054287.42310293
511320.7295924155054215.99129915511304.7202696615054184.55116143
511274.576083558 5054109.9715783511298.2182712775054021.32213512
 511303.217600975053990.53499631511243.448083237  5053894.957983
511244.7206010015053874.63440138511262.0813404835053842.63690007
511267.0617430165053822.31984037511256.627314386 5053782.8806364
511232.6083402495053737.25726171511228.3400762585053705.22010694
511264.2773687685053652.92857945511289.6604307255053627.72006677
511293.4151343885053601.85644996511271.8399206265053571.63520638
511264.4839782725053538.35967267511293.701347188 5053443.5524132
511297.4829124215053402.90452018511287.7015979815053343.75221456
511263.6989213565053288.26967533511201.3405683355053253.66179324
511134.0724288835053199.33354122
Rch Text X Y=511598.9521829,5055187.7613487
Reverse River Text= 0 

Type RM Length L Ch R = 1 ,2900    ,293.2,293.2,293.2
XS GIS Cut Line=2
512022.8896311715055705.92888479511114.5065432485055873.10597837
Node Last Edited Time=Oct/10/2025 11:37:15
#Sta/Elev= 0 
#Mann= 1 ,-1,0
       0   -9999       0
Bank Sta=271.5,279.5
XS Rating Curve= 0 ,0
XS HTab Horizontal Distribution= 5 , 5 , 5 
Exp/Cntr(USF)=0,0
Exp/Cntr=0.3,0.1

Type RM Length L Ch R = 1 ,2606.798,339.6,339.6,339.6
XS GIS Cut Line=2
 512016.632989545055435.73028197511121.7765030355055596.18514617
Node Last Edited Time=Oct/10/2025 11:37:15
#Sta/Elev= 0 
#Mann= 1 ,-1,0
       0   -9999       0
Bank Sta=236.7,248.8
XS Rating Curve= 0 ,0
XS HTab Horizontal Distribution= 5 , 5 , 5 
Exp/Cntr(USF)=0,0
Exp/Cntr=0.3,0.1

Type RM Length L Ch R = 1 ,2267.197,296.1,296.1,296.1
XS GIS Cut Line=2
512051.1440002895055111.55760024511149.4750319435055265.24890037
Node Last Edited Time=Oct/10/2025 11:37:15
#Sta/Elev= 0 
#Mann= 1 ,-1,0
       0   -9999       0
Bank Sta=317.7,333
XS Rating Curve= 0 ,0
XS HTab Horizontal Distribution= 5 , 5 , 5 
Exp/Cntr(USF)=0,0
Exp/Cntr=0.3,0.1

Type RM Length L Ch R = 1 ,1971.081,301,301,301
XS GIS Cut Line=2
512058.4171416185054854.87040561511088.9600413635054994.93583222
Node Last Edited Time=Oct/10/2025 11:37:15
#Sta/Elev= 0 
#Mann= 1 ,-1,0
       0   -9999       0
Bank Sta=476.5,486.2
XS Rating Curve= 0 ,0
XS HTab Horizontal Distribution= 5 , 5 , 5 
Exp/Cntr(USF)=0,0
Exp/Cntr=0.3,0.1

Type RM Length L Ch R = 1 ,1670.076,243.9,243.9,243.9
XS GIS Cut Line=2
512133.5358460555054564.52555614511041.9595279195054744.90230614
Node Last Edited Time=Oct/10/2025 11:37:15
#Sta/Elev= 0 
#Mann= 1 ,-1,0
       0   -9999       0
Bank Sta=716.4,734.8
XS Rating Curve= 0 ,0
XS HTab Horizontal Distribution= 5 , 5 , 5 
Exp/Cntr(USF)=0,0
Exp/Cntr=0.3,0.1

Type RM Length L Ch R = 1 ,1426.219,300.8,300.8,300.8
XS GIS Cut Line=2
512215.4133471635054287.69347847510859.2767905565054562.17955685
Node Last Edited Time=Oct/10/2025 11:37:15
#Sta/Elev= 0 
#Mann= 1 ,-1,0
       0   -9999       0
Bank Sta=899,908.2
XS Rating Curve= 0 ,0
XS HTab Horizontal Distribution= 5 , 5 , 5 
Exp/Cntr(USF)=0,0
Exp/Cntr=0.3,0.1

Type RM Length L Ch R = 1 ,1125.407,221.6,221.6,221.6
XS GIS Cut Line=2
512270.1572174255054024.30954425510832.7039753875054251.36162838
Node Last Edited Time=Oct/10/2025 11:37:15
#Sta/Elev= 0 
#Mann= 1 ,-1,0
       0   -9999       0
Bank Sta=976.1,984.7
XS Rating Curve= 0 ,0
XS HTab Horizontal Distribution= 5 , 5 , 5 
Exp/Cntr(USF)=0,0
Exp/Cntr=0.3,0.1

Type RM Length L Ch R = 1 ,903.7613,203.4,203.4,203.4
XS GIS Cut Line=2
 512311.254747315053808.18421469510948.3379528925054021.85251362
Node Last Edited Time=Oct/10/2025 11:37:15
#Sta/Elev= 0 
#Mann= 1 ,-1,0
       0   -9999       0
Bank Sta=1029.6,1039.2
XS Rating Curve= 0 ,0
XS HTab Horizontal Distribution= 5 , 5 , 5 
Exp/Cntr(USF)=0,0
Exp/Cntr=0.3,0.1

Type RM Length L Ch R = 1 ,700.3638,238.2,238.2,238.2
XS GIS Cut Line=2
512311.5743738185053646.02531028510941.9026506025053825.90483334
Node Last Edited Time=Oct/10/2025 11:37:15
#Sta/Elev= 0 
#Mann= 1 ,-1,0
       0   -9999       0
Bank Sta=1059.5,1067.8
XS Rating Curve= 0 ,0
XS HTab Horizontal Distribution= 5 , 5 , 5 
Exp/Cntr(USF)=0,0
Exp/Cntr=0.3,0.1

Type RM Length L Ch R = 1 ,462.1220,202.2,202.2,202.2
XS GIS Cut Line=2
512332.338159666 5053429.8470502511064.3035570725053609.90767588
Node Last Edited Time=Oct/10/2025 11:37:15
#Sta/Elev= 0 
#Mann= 1 ,-1,0
       0   -9999       0
Bank Sta=1060.3,1070.5
XS Rating Curve= 0 ,0
XS HTab Horizontal Distribution= 5 , 5 , 5 
Exp/Cntr(USF)=0,0
Exp/Cntr=0.3,0.1

Type RM Length L Ch R = 1 ,259.8873,,,
XS GIS Cut Line=2
512366.7291167855053179.90229285511071.4059124315053427.48493804
Node Last Edited Time=Oct/10/2025 11:37:15
#Sta/Elev= 0 
#Mann= 1 ,-1,0
       0   -9999       0
Bank Sta=1087.7,1095.6
XS Rating Curve= 0 ,0
XS HTab Horizontal Distribution= 5 , 5 , 5 
Exp/Cntr(USF)=0,0
Exp/Cntr=0.3,0.1

LCMann Time=Dec/30/1899 00:00:00
LCMann Region Time=Dec/30/1899 00:00:00
LCMann Table=0
Chan Stop Cuts=-1 



Use User Specified Reach Order=0
GIS Ratio Cuts To Invert=-1
GIS Limit At Bridges=0
Composite Channel Slope=5
