Geom Title=geo1
Program Version=6.60
Viewing Rectangle= 506473.789994237 , 512198.501519717 , 5063448.45278686 , 5052646.25522725 

River Reach=River 1         ,Reach 1         
Reach XY= 153 
507813.7391623315062778.74488008507895.2516483825062733.33291312
507934.7968842385062692.78864063507970.6243270675062664.54107554
507959.5763879485062617.78119845507949.8095886115062534.11756801
507953.6096137185062457.85127365 507980.820927975062412.36898465
507999.4166201845062348.42230892507986.0480646975062186.01549859
507947.9517293535062055.55991865507872.809819981 5061936.1275551
507741.9096355615061985.17489837507613.5868899575061946.87796408
507534.6062474035061933.24876925507502.5862400945061872.92563385
507489.092765643 5061802.7818117507543.4402157655061773.31973692
507538.6188802165061677.34811008507456.0463458485061567.74752948
 507530.214633555061481.71082569507515.4431412675061447.24230059
507551.3503811795061357.46695015507571.1209366775061341.49568372
507584.7522856085061298.44790413507628.0004451645061264.04899734
  507630.55374735061195.14815732507692.3505142555061136.16298923
507705.9694529945061104.18812903507747.9285226875061115.31422058
507778.8507509945061067.36499143507820.8207495095061069.87844218
507975.2783812385060956.87090588508506.6647192685060561.34589106
508541.2487797985060550.31814178508736.4888831865060427.53134891
508772.3589535055060380.81928182508820.5542737285060349.50703826
508854.6066561485060279.41064037508873.7613885845060267.13171505
508891.6736332255060260.38883987508902.1937503225060242.55985396
508881.8682255685060209.91927683508886.8332335925060191.46689219
508951.0956033265060150.33251373508967.1925305155060118.35890978
508977.1338593755060074.06977143509019.1510384315060048.28660004
509043.9049455955060007.09519319509071.1151904895059975.13725701
509102.0011405635059962.87551343509152.7096535165059905.10764513
509185.4518418755059890.38751834509200.916921476 5059869.4885279
509239.9234189155059793.85796038509256.6227656955059773.57597172
509289.3347157655059779.77819977509324.5575323265059758.29325736
509367.7853073755059750.97375119509380.1570173585059734.99298144
509437.8382359255059560.31500242509450.239418407 5059525.2571201
 509481.786929635059485.92045562509514.5452461225059462.58565896
 509580.003045225059454.68584369509589.3020726755059430.08453747
509629.4871856565059395.68446719 509657.909342745059382.18973147
509664.1245424385059355.73727936509696.3175252855059299.78574061
509743.3659987795059220.47145529509728.6071035275059182.29275911
509760.7716927645059145.41798101 509763.295421885059110.95836058
509788.0396035785059081.45679792509788.2424715135058952.21642809
509773.5468727385058873.41679667509736.5467894955058842.58654675
509745.2202488335058824.13660045 509773.745575485058746.63397163
509741.9115068325058570.56061235  509796.3190755  5058527.562398
509786.5259481335058472.15359493509789.0848581225058415.53271245
509769.4362396115058344.10456568509800.3954749675058291.22010167
509864.6532729145058269.16325353509937.6001085085058220.03844268
510015.5694463495058120.44973448510008.3307706165058013.33675128
 510004.811049725057897.61033654510066.6569977485057842.31083975
510076.5401216495057841.09570224510116.0127629975057873.16796513
510135.8049411245057854.73374235510150.7468107865057780.89209102
510196.5682495035057707.10000232510230.0894088585057602.50873506
510248.8599537655057454.80083496510298.4922521215057319.45236038
510254.1994590215057212.26435781510228.3315200545057167.89789566
510203.6058751965057180.16966494510186.3522545095057155.51694083
510273.1318653795056967.27835017510297.9946369525056872.51113653
 510369.809748895056772.89522279  510395.85679365056710.14173426
510381.204463275 5056606.6859041510403.5563776485056537.76788901
 510449.422884075056444.26119882510519.8272267575056452.99905545
510610.1361906595056380.50086209510565.8045014215056295.45976642
510573.2756038765056260.99318164510601.6806131065056267.19838898
 510619.058680095056219.20301146510726.745054975  5056102.401837
510750.2998988885056055.64762263 510780.096426615055971.96018591
510848.2101307445055879.71789769510885.392021927 5055813.2823716
510877.0114515065055659.32927959510783.2545907545055574.19096097
510769.7332027765055533.52668275510719.1243883825055503.88236784
510715.6057159595055394.26713171510663.8103716355055335.06257752
510636.7123587985055284.52110917 510675.099591295055236.55419581
510737.0794727385055122.12011481510754.5381156415055029.77737784
510775.6895423715054946.06134672510714.0622799395054853.57991808
510737.6767806045054774.79242438510655.1337878095054626.84575315
510657.7440950095054545.55582809510682.6011679025054463.07111318
510703.8548654945054320.22204949510734.9520001345054203.25474362
510776.0011408215054049.34753251 510825.590591615053960.74030374
510836.7907317165053916.41276347 510819.618034285053841.23881136
510824.820099327 5053692.1886795 510873.080580925053659.01088881
510908.9990202045053615.95634651510920.2520519565053542.06017165
510943.8028347145053503.91119784 510989.719095245053399.27557998
511057.787516481 5053350.1168707 511099.930793335053283.66457579
511135.9166381315053204.88084954
Rch Text X Y=,
Reverse River Text= 0 

Type RM Length L Ch R = 1 ,12331.81,213.6,213.6,213.6
XS GIS Cut Line=2
508075.1505598685062957.44380688507419.2390903315062415.36537354
Node Last Edited Time=Oct/10/2025 10:46:08
#Sta/Elev= 0 
#Mann= 1 ,-1,0
       0   -9999       0
Bank Sta=298.5,309.7
XS Rating Curve= 0 ,0
XS HTab Horizontal Distribution= 5 , 5 , 5 
Exp/Cntr(USF)=0,0
Exp/Cntr=0.3,0.1

Type RM Length L Ch R = 1 ,12118.22,121.6,121.6,121.6
XS GIS Cut Line=2
 508431.192231135062505.22634562507211.4488586595062794.00999075
Node Last Edited Time=Oct/10/2025 10:46:08
#Sta/Elev= 0 
#Mann= 1 ,-1,0
       0   -9999       0
Bank Sta=480.8,488.7
XS Rating Curve= 0 ,0
XS HTab Horizontal Distribution= 5 , 5 , 5 
Exp/Cntr(USF)=0,0
Exp/Cntr=0.3,0.1

Type RM Length L Ch R = 1 ,11996.66,172.2,172.2,172.2
XS GIS Cut Line=2
508465.9375892365062367.49198515507231.3325306495062675.94033813
Node Last Edited Time=Oct/10/2025 10:46:08
#Sta/Elev= 0 
#Mann= 1 ,-1,0
       0   -9999       0
Bank Sta=526,534.1
XS Rating Curve= 0 ,0
XS HTab Horizontal Distribution= 5 , 5 , 5 
Exp/Cntr(USF)=0,0
Exp/Cntr=0.3,0.1

Type RM Length L Ch R = 1 ,11824.49,308.5,308.5,308.5
XS GIS Cut Line=2
  508456.28406835062205.08966195507325.3098877735062523.51044462
Node Last Edited Time=Oct/10/2025 10:46:08
#Sta/Elev= 0 
#Mann= 1 ,-1,0
       0   -9999       0
Bank Sta=471.9,479.8
XS Rating Curve= 0 ,0
XS HTab Horizontal Distribution= 5 , 5 , 5 
Exp/Cntr(USF)=0,0
Exp/Cntr=0.3,0.1

Type RM Length L Ch R = 1 ,11515.98,1017.6,1017.6,1017.6
XS GIS Cut Line=2
508575.4181851645061737.74492705507202.0591734525062375.74411612
Node Last Edited Time=Oct/10/2025 10:46:08
#Sta/Elev= 0 
#Mann= 1 ,-1,0
       0   -9999       0
Bank Sta=701.5,710.5
XS Rating Curve= 0 ,0
XS HTab Horizontal Distribution= 5 , 5 , 5 
Exp/Cntr(USF)=0,0
Exp/Cntr=0.3,0.1

Type RM Length L Ch R = 1 ,10498.42,1188,1188,1188
XS GIS Cut Line=2
508338.7682360965061476.58855321506734.0041544865061489.41209196
Node Last Edited Time=Oct/10/2025 10:46:08
#Sta/Elev= 0 
#Mann= 1 ,-1,0
       0   -9999       0
Bank Sta=804.8,816
XS Rating Curve= 0 ,0
XS HTab Horizontal Distribution= 5 , 5 , 5 
Exp/Cntr(USF)=0,0
Exp/Cntr=0.3,0.1

Type RM Length L Ch R = 1 ,9310.402,1038.1,1038.1,1038.1
XS GIS Cut Line=2
 508719.156038245061344.22676156507822.1580626835060004.21174554
Node Last Edited Time=Oct/10/2025 10:46:08
#Sta/Elev= 0 
#Mann= 1 ,-1,0
       0   -9999       0
Bank Sta=750.8,760.9
XS Rating Curve= 0 ,0
XS HTab Horizontal Distribution= 5 , 5 , 5 
Exp/Cntr(USF)=0,0
Exp/Cntr=0.3,0.1

Type RM Length L Ch R = 1 ,8272.304,740.7,740.7,740.7
XS GIS Cut Line=2
509520.5143540625060405.29841184508528.8046030125059719.61684192
Node Last Edited Time=Oct/10/2025 10:46:08
#Sta/Elev= 0 
#Mann= 1 ,-1,0
       0   -9999       0
Bank Sta=613.6,624.8
XS Rating Curve= 0 ,0
XS HTab Horizontal Distribution= 5 , 5 , 5 
Exp/Cntr(USF)=0,0
Exp/Cntr=0.3,0.1

Type RM Length L Ch R = 1 ,7531.643,754.2,754.2,754.2
XS GIS Cut Line=2
510198.0924384455059795.96709057508973.8460408045059355.93637435
Node Last Edited Time=Oct/10/2025 10:46:08
#Sta/Elev= 0 
#Mann= 1 ,-1,0
       0   -9999       0
Bank Sta=791.1,799.4
XS Rating Curve= 0 ,0
XS HTab Horizontal Distribution= 5 , 5 , 5 
Exp/Cntr(USF)=0,0
Exp/Cntr=0.3,0.1

Type RM Length L Ch R = 1 ,6777.489,785.6,785.6,785.6
XS GIS Cut Line=2
510303.2436014745058929.65938041509251.042252353 5058957.5507126
Node Last Edited Time=Oct/10/2025 10:46:08
#Sta/Elev= 0 
#Mann= 1 ,-1,0
       0   -9999       0
Bank Sta=512.8,520.8
XS Rating Curve= 0 ,0
XS HTab Horizontal Distribution= 5 , 5 , 5 
Exp/Cntr(USF)=0,0
Exp/Cntr=0.3,0.1

Type RM Length L Ch R = 1 ,5991.886,731.2,731.2,731.2
XS GIS Cut Line=2
510397.8532568345058476.83574274509301.790231629 5058051.6369257
Node Last Edited Time=Oct/10/2025 10:46:08
#Sta/Elev= 0 
#Mann= 1 ,-1,0
       0   -9999       0
Bank Sta=566.5,581.5
XS Rating Curve= 0 ,0
XS HTab Horizontal Distribution= 5 , 5 , 5 
Exp/Cntr(USF)=0,0
Exp/Cntr=0.3,0.1

Type RM Length L Ch R = 1 ,5260.721,738.8,738.8,738.8
XS GIS Cut Line=2
510670.4918702945057930.72162344509569.4028027645057510.35520386
Node Last Edited Time=Oct/10/2025 10:46:08
#Sta/Elev= 0 
#Mann= 1 ,-1,0
       0   -9999       0
Bank Sta=525.7,534.7
XS Rating Curve= 0 ,0
XS HTab Horizontal Distribution= 5 , 5 , 5 
Exp/Cntr(USF)=0,0
Exp/Cntr=0.3,0.1

Type RM Length L Ch R = 1 ,4521.947,527.5,527.5,527.5
XS GIS Cut Line=2
510696.308847804 5057280.7232679509753.1526856875056909.80544034
Node Last Edited Time=Oct/10/2025 10:46:08
#Sta/Elev= 0 
#Mann= 1 ,-1,0
       0   -9999       0
Bank Sta=512.1,520.6
XS Rating Curve= 0 ,0
XS HTab Horizontal Distribution= 5 , 5 , 5 
Exp/Cntr(USF)=0,0
Exp/Cntr=0.3,0.1

Type RM Length L Ch R = 1 ,3994.473,620.5,620.5,620.5
XS GIS Cut Line=2
510875.1123414115056749.12925745509877.3869411725056466.72555876
Node Last Edited Time=Oct/10/2025 10:46:08
#Sta/Elev= 0 
#Mann= 1 ,-1,0
       0   -9999       0
Bank Sta=508.6,517.2
XS Rating Curve= 0 ,0
XS HTab Horizontal Distribution= 5 , 5 , 5 
Exp/Cntr(USF)=0,0
Exp/Cntr=0.3,0.1

Type RM Length L Ch R = 1 ,3373.983,369.1,369.1,369.1
XS GIS Cut Line=2
511078.4980612655056306.19997349510233.8323491685056073.25107624
Node Last Edited Time=Oct/10/2025 10:46:08
#Sta/Elev= 0 
#Mann= 1 ,-1,0
       0   -9999       0
Bank Sta=441,451.6
XS Rating Curve= 0 ,0
XS HTab Horizontal Distribution= 5 , 5 , 5 
Exp/Cntr(USF)=0,0
Exp/Cntr=0.3,0.1

Type RM Length L Ch R = 1 ,3004.906,245.6,245.6,245.6
XS GIS Cut Line=2
 511163.318911685055853.18088828510253.8268039025055935.36096398
Node Last Edited Time=Oct/10/2025 10:46:08
#Sta/Elev= 0 
#Mann= 1 ,-1,0
       0   -9999       0
Bank Sta=312.3,324
XS Rating Curve= 0 ,0
XS HTab Horizontal Distribution= 5 , 5 , 5 
Exp/Cntr(USF)=0,0
Exp/Cntr=0.3,0.1

Type RM Length L Ch R = 1 ,2759.269,384.1,384.1,384.1
XS GIS Cut Line=2
511069.8025413175055636.26920872510264.107856924  5055694.005451
Node Last Edited Time=Oct/10/2025 10:46:08
#Sta/Elev= 0 
#Mann= 1 ,-1,0
       0   -9999       0
Bank Sta=196,209.5
XS Rating Curve= 0 ,0
XS HTab Horizontal Distribution= 5 , 5 , 5 
Exp/Cntr(USF)=0,0
Exp/Cntr=0.3,0.1

Type RM Length L Ch R = 1 ,2375.125,295.8,295.8,295.8
XS GIS Cut Line=2
511030.7906362655055338.16339321 510319.022459555055361.57798452
Node Last Edited Time=Oct/10/2025 10:46:08
#Sta/Elev= 0 
#Mann= 1 ,-1,0
       0   -9999       0
Bank Sta=348.2,360.3
XS Rating Curve= 0 ,0
XS HTab Horizontal Distribution= 5 , 5 , 5 
Exp/Cntr(USF)=0,0
Exp/Cntr=0.3,0.1

Type RM Length L Ch R = 1 ,2079.362,376.6,376.6,376.6
XS GIS Cut Line=2
511011.446185261 5055096.7337442510292.2811489695055093.04350537
Node Last Edited Time=Oct/10/2025 10:46:08
#Sta/Elev= 0 
#Mann= 1 ,-1,0
       0   -9999       0
Bank Sta=265.3,273.3
XS Rating Curve= 0 ,0
XS HTab Horizontal Distribution= 5 , 5 , 5 
Exp/Cntr(USF)=0,0
Exp/Cntr=0.3,0.1

Type RM Length L Ch R = 1 ,1702.719,278.9,278.9,278.9
XS GIS Cut Line=2
511024.5598267395054668.13386605510243.2093266945054876.19160064
Node Last Edited Time=Oct/10/2025 10:46:08
#Sta/Elev= 0 
#Mann= 1 ,-1,0
       0   -9999       0
Bank Sta=307.6,316.6
XS Rating Curve= 0 ,0
XS HTab Horizontal Distribution= 5 , 5 , 5 
Exp/Cntr(USF)=0,0
Exp/Cntr=0.3,0.1

Type RM Length L Ch R = 1 ,1423.792,419.9,419.9,419.9
XS GIS Cut Line=2
511037.1091178365054559.76397374510342.8143378535054425.54627009
Node Last Edited Time=Oct/10/2025 10:46:08
#Sta/Elev= 0 
#Mann= 1 ,-1,0
       0   -9999       0
Bank Sta=365.2,373.3
XS Rating Curve= 0 ,0
XS HTab Horizontal Distribution= 5 , 5 , 5 
Exp/Cntr(USF)=0,0
Exp/Cntr=0.3,0.1

Type RM Length L Ch R = 1 ,1003.850,201.5,201.5,201.5
XS GIS Cut Line=2
511055.1297788525054153.30897004510464.6304255835054004.47171877
Node Last Edited Time=Oct/10/2025 10:46:08
#Sta/Elev= 0 
#Mann= 1 ,-1,0
       0   -9999       0
Bank Sta=292.5,300.5
XS Rating Curve= 0 ,0
XS HTab Horizontal Distribution= 5 , 5 , 5 
Exp/Cntr(USF)=0,0
Exp/Cntr=0.3,0.1

Type RM Length L Ch R = 1 ,802.3703,290.5,290.5,290.5
XS GIS Cut Line=2
511015.9294966865053956.14569601510551.484841319 5053802.5917169
Node Last Edited Time=Oct/10/2025 10:46:08
#Sta/Elev= 0 
#Mann= 1 ,-1,0
       0   -9999       0
Bank Sta=189.1,198.4
XS Rating Curve= 0 ,0
XS HTab Horizontal Distribution= 5 , 5 , 5 
Exp/Cntr(USF)=0,0
Exp/Cntr=0.3,0.1

Type RM Length L Ch R = 1 ,511.8758,94.1,94.1,94.1
XS GIS Cut Line=2
511065.8155458195053702.46624542510648.3209113255053548.98231113
Node Last Edited Time=Oct/10/2025 10:46:08
#Sta/Elev= 0 
#Mann= 1 ,-1,0
       0   -9999       0
Bank Sta=181.8,191.6
XS Rating Curve= 0 ,0
XS HTab Horizontal Distribution= 5 , 5 , 5 
Exp/Cntr(USF)=0,0
Exp/Cntr=0.3,0.1

Type RM Length L Ch R = 1 ,417.7493,88.6,88.6,88.6
XS GIS Cut Line=2
511125.2952987955053616.33784886510700.3465290165053482.54630533
Node Last Edited Time=Oct/10/2025 10:46:08
#Sta/Elev= 0 
#Mann= 1 ,-1,0
       0   -9999       0
Bank Sta=212.5,220.4
XS Rating Curve= 0 ,0
XS HTab Horizontal Distribution= 5 , 5 , 5 
Exp/Cntr(USF)=0,0
Exp/Cntr=0.3,0.1

Type RM Length L Ch R = 1 ,329.1953,81.7,81.7,81.7
XS GIS Cut Line=2
511147.6924188785053532.60642122510732.6223608015053401.29249543
Node Last Edited Time=Oct/10/2025 10:46:08
#Sta/Elev= 0 
#Mann= 1 ,-1,0
       0   -9999       0
Bank Sta=195.1,203.6
XS Rating Curve= 0 ,0
XS HTab Horizontal Distribution= 5 , 5 , 5 
Exp/Cntr(USF)=0,0
Exp/Cntr=0.3,0.1

Type RM Length L Ch R = 1 ,247.5073,102.9,102.9,102.9
XS GIS Cut Line=2
511128.0657316675053448.79895068510893.3738581595053362.14773995
Node Last Edited Time=Oct/10/2025 10:46:08
#Sta/Elev= 0 
#Mann= 1 ,-1,0
       0   -9999       0
Bank Sta=139.9,151.1
XS Rating Curve= 0 ,0
XS HTab Horizontal Distribution= 5 , 5 , 5 
Exp/Cntr(USF)=0,0
Exp/Cntr=0.3,0.1

Type RM Length L Ch R = 1 ,144.5992,79.5,79.5,79.5
XS GIS Cut Line=2
511172.6943664835053374.96079612510960.2491129025053288.34589465
Node Last Edited Time=Oct/10/2025 10:46:08
#Sta/Elev= 0 
#Mann= 1 ,-1,0
       0   -9999       0
Bank Sta=107.6,116.6
XS Rating Curve= 0 ,0
XS HTab Horizontal Distribution= 5 , 5 , 5 
Exp/Cntr(USF)=0,0
Exp/Cntr=0.3,0.1

Type RM Length L Ch R = 1 ,65      ,,,
XS GIS Cut Line=2
511209.8901214755053310.96462059510975.2331472185053202.13247636
Node Last Edited Time=Oct/10/2025 10:46:08
#Sta/Elev= 0 
#Mann= 1 ,-1,0
       0   -9999       0
Bank Sta=107.1,115.6
XS Rating Curve= 0 ,0
XS HTab Horizontal Distribution= 5 , 5 , 5 
Exp/Cntr(USF)=0,0
Exp/Cntr=0.3,0.1

River Reach=River 2         ,Reach 2         
Reach XY= 49 
511753.9121008595055850.57061783511751.581295136 5055776.0608609
511753.6444777535055664.61291717511738.8859143375055628.25511711
511739.5604477435055598.08382949511779.2247112165055531.65525897
511782.4055268795055483.01489095511760.8206430055055462.65344148
511732.4663393185055428.11624599511732.5542934195055381.31660883
511741.3473108875055304.97481931511753.9054878415055197.84891871
511738.509450332 5055171.3401886511669.3935844295055127.48797735
511655.2292505045055102.82891056511622.0812712655054986.99256749
  511560.47604475054889.57666339511501.4220602225054747.82344282
511446.5246683685054696.60671559511393.4328428255054671.25946543
511360.177973237  5054610.228584511341.7352035035054558.46222664
511328.9202775375054469.75311926 511343.838380385054421.12562963
511335.3229129535054346.58787754511313.8029291995054287.42310293
511320.7295924155054215.99129915511304.7202696615054184.55116143
511274.576083558 5054109.9715783511298.2182712775054021.32213512
 511303.217600975053990.53499631511243.448083237  5053894.957983
511244.7206010015053874.63440138511262.0813404835053842.63690007
511267.0617430165053822.31984037511256.627314386 5053782.8806364
511232.6083402495053737.25726171511228.3400762585053705.22010694
511264.2773687685053652.92857945511289.6604307255053627.72006677
511293.4151343885053601.85644996511271.8399206265053571.63520638
511264.4839782725053538.35967267511293.701347188 5053443.5524132
511297.4829124215053402.90452018511287.7015979815053343.75221456
511263.6989213565053288.26967533511201.3405683355053253.66179324
511134.0724288835053199.33354122
Rch Text X Y=,
Reverse River Text= 0 

Type RM Length L Ch R = 1 ,2874.482,116.3,116.3,116.3
XS GIS Cut Line=2
511938.2873594685055704.37192632511607.0687106565055750.54464823
Node Last Edited Time=Oct/10/2025 10:46:08
#Sta/Elev= 0 
#Mann= 1 ,-1,0
       0   -9999       0
Bank Sta=183.7,191.6
XS Rating Curve= 0 ,0
XS HTab Horizontal Distribution= 5 , 5 , 5 
Exp/Cntr(USF)=0,0
Exp/Cntr=0.3,0.1

Type RM Length L Ch R = 1 ,2758.175,214.5,214.5,214.5
XS GIS Cut Line=2
511937.2331320125055609.54252058511588.7731381255055622.43274392
Node Last Edited Time=Oct/10/2025 10:46:08
#Sta/Elev= 0 
#Mann= 1 ,-1,0
       0   -9999       0
Bank Sta=194.3,202.1
XS Rating Curve= 0 ,0
XS HTab Horizontal Distribution= 5 , 5 , 5 
Exp/Cntr(USF)=0,0
Exp/Cntr=0.3,0.1

Type RM Length L Ch R = 1 ,2543.685,111.5,111.5,111.5
XS GIS Cut Line=2
511928.9323342695055427.25700283 511540.929241215055436.38019013
Node Last Edited Time=Oct/10/2025 10:46:08
#Sta/Elev= 0 
#Mann= 1 ,-1,0
       0   -9999       0
Bank Sta=187.6,199.3
XS Rating Curve= 0 ,0
XS HTab Horizontal Distribution= 5 , 5 , 5 
Exp/Cntr(USF)=0,0
Exp/Cntr=0.3,0.1

Type RM Length L Ch R = 1 ,2432.172,281.5,281.5,281.5
XS GIS Cut Line=2
511915.566170629 5055308.9996885511501.5686940965055339.01297771
Node Last Edited Time=Oct/10/2025 10:46:08
#Sta/Elev= 0 
#Mann= 1 ,-1,0
       0   -9999       0
Bank Sta=172.6,180.6
XS Rating Curve= 0 ,0
XS HTab Horizontal Distribution= 5 , 5 , 5 
Exp/Cntr(USF)=0,0
Exp/Cntr=0.3,0.1

Type RM Length L Ch R = 1 ,2150.687,158.4,158.4,158.4
XS GIS Cut Line=2
511809.8179768275055035.37923701511463.6121800625055149.27600449
Node Last Edited Time=Oct/10/2025 10:46:08
#Sta/Elev= 0 
#Mann= 1 ,-1,0
       0   -9999       0
Bank Sta=163.3,171.4
XS Rating Curve= 0 ,0
XS HTab Horizontal Distribution= 5 , 5 , 5 
Exp/Cntr(USF)=0,0
Exp/Cntr=0.3,0.1

Type RM Length L Ch R = 1 ,1992.320,129.9,129.9,129.9
XS GIS Cut Line=2
511782.9417545075054871.51737888511411.9704473185055008.77475064
Node Last Edited Time=Oct/10/2025 10:46:08
#Sta/Elev= 0 
#Mann= 1 ,-1,0
       0   -9999       0
Bank Sta=197.6,206.6
XS Rating Curve= 0 ,0
XS HTab Horizontal Distribution= 5 , 5 , 5 
Exp/Cntr(USF)=0,0
Exp/Cntr=0.3,0.1

Type RM Length L Ch R = 1 ,1862.405,146.9,146.9,146.9
XS GIS Cut Line=2
511709.0589179685054732.19720663511340.4405928135054931.04992933
Node Last Edited Time=Oct/10/2025 10:46:08
#Sta/Elev= 0 
#Mann= 1 ,-1,0
       0   -9999       0
Bank Sta=194.5,202.9
XS Rating Curve= 0 ,0
XS HTab Horizontal Distribution= 5 , 5 , 5 
Exp/Cntr(USF)=0,0
Exp/Cntr=0.3,0.1

Type RM Length L Ch R = 1 ,1715.471,111.9,111.9,111.9
XS GIS Cut Line=2
511596.8382576645054606.35256639511308.5305202375054810.28761284
Node Last Edited Time=Oct/10/2025 10:46:08
#Sta/Elev= 0 
#Mann= 1 ,-1,0
       0   -9999       0
Bank Sta=167.2,177.1
XS Rating Curve= 0 ,0
XS HTab Horizontal Distribution= 5 , 5 , 5 
Exp/Cntr(USF)=0,0
Exp/Cntr=0.3,0.1

Type RM Length L Ch R = 1 ,1603.576,79.9,79.9,79.9
XS GIS Cut Line=2
511542.5184498285054576.69033125511201.2219877685054698.00942324
Node Last Edited Time=Oct/10/2025 10:46:08
#Sta/Elev= 0 
#Mann= 1 ,-1,0
       0   -9999       0
Bank Sta=174,182.8
XS Rating Curve= 0 ,0
XS HTab Horizontal Distribution= 5 , 5 , 5 
Exp/Cntr(USF)=0,0
Exp/Cntr=0.3,0.1

Type RM Length L Ch R = 1 ,1523.663,89,89,89
XS GIS Cut Line=2
511529.0634944445054501.52914208511166.757143581 5054621.5811067
Node Last Edited Time=Oct/10/2025 10:46:08
#Sta/Elev= 0 
#Mann= 1 ,-1,0
       0   -9999       0
Bank Sta=191.5,199.7
XS Rating Curve= 0 ,0
XS HTab Horizontal Distribution= 5 , 5 , 5 
Exp/Cntr(USF)=0,0
Exp/Cntr=0.3,0.1

Type RM Length L Ch R = 1 ,1434.688,104.2,104.2,104.2
XS GIS Cut Line=2
511511.8757783845054439.90960557511165.7261925675054507.02764445
Node Last Edited Time=Oct/10/2025 10:46:08
#Sta/Elev= 0 
#Mann= 1 ,-1,0
       0   -9999       0
Bank Sta=181.6,189.5
XS Rating Curve= 0 ,0
XS HTab Horizontal Distribution= 5 , 5 , 5 
Exp/Cntr(USF)=0,0
Exp/Cntr=0.3,0.1

Type RM Length L Ch R = 1 ,1330.474,113.3,113.3,113.3
XS GIS Cut Line=2
511520.7241904425054332.76166554511188.1493921795054407.29531243
Node Last Edited Time=Oct/10/2025 10:46:08
#Sta/Elev= 0 
#Mann= 1 ,-1,0
       0   -9999       0
Bank Sta=182.9,190.8
XS Rating Curve= 0 ,0
XS HTab Horizontal Distribution= 5 , 5 , 5 
Exp/Cntr(USF)=0,0
Exp/Cntr=0.3,0.1

Type RM Length L Ch R = 1 ,1217.149,73.2,73.2,73.2
XS GIS Cut Line=2
511485.0434894155054246.47050239511210.630794921 5054275.5350048
Node Last Edited Time=Oct/10/2025 10:46:08
#Sta/Elev= 0 
#Mann= 1 ,-1,0
       0   -9999       0
Bank Sta=166,173.9
XS Rating Curve= 0 ,0
XS HTab Horizontal Distribution= 5 , 5 , 5 
Exp/Cntr(USF)=0,0
Exp/Cntr=0.3,0.1

Type RM Length L Ch R = 1 ,1143.941,59.4,59.4,59.4
XS GIS Cut Line=2
511479.0521420095054144.21921831511183.5215435025054231.14164218
Node Last Edited Time=Oct/10/2025 10:46:08
#Sta/Elev= 0 
#Mann= 1 ,-1,0
       0   -9999       0
Bank Sta=172.3,181
XS Rating Curve= 0 ,0
XS HTab Horizontal Distribution= 5 , 5 , 5 
Exp/Cntr(USF)=0,0
Exp/Cntr=0.3,0.1

Type RM Length L Ch R = 1 ,1084.571,56.5,56.5,56.5
XS GIS Cut Line=2
511444.5379514295054094.88286362511131.7011755035054183.00855401
Node Last Edited Time=Oct/10/2025 10:46:08
#Sta/Elev= 0 
#Mann= 1 ,-1,0
       0   -9999       0
Bank Sta=160,168.4
XS Rating Curve= 0 ,0
XS HTab Horizontal Distribution= 5 , 5 , 5 
Exp/Cntr(USF)=0,0
Exp/Cntr=0.3,0.1

Type RM Length L Ch R = 1 ,1028.110,56.9,56.9,56.9
XS GIS Cut Line=2
511434.6598997025054089.93744762511115.8146923215054081.97082067
Node Last Edited Time=Oct/10/2025 10:46:08
#Sta/Elev= 0 
#Mann= 1 ,-1,0
       0   -9999       0
Bank Sta=149.6,157.9
XS Rating Curve= 0 ,0
XS HTab Horizontal Distribution= 5 , 5 , 5 
Exp/Cntr(USF)=0,0
Exp/Cntr=0.3,0.1

Type RM Length L Ch R = 1 ,971.2538,52.1,52.1,52.1
XS GIS Cut Line=2
511469.3687438215054033.33660717511124.5602481185054029.01738054
Node Last Edited Time=Oct/10/2025 10:46:08
#Sta/Elev= 0 
#Mann= 1 ,-1,0
       0   -9999       0
Bank Sta=169.6,177.9
XS Rating Curve= 0 ,0
XS HTab Horizontal Distribution= 5 , 5 , 5 
Exp/Cntr(USF)=0,0
Exp/Cntr=0.3,0.1

Type RM Length L Ch R = 1 ,919.1466,63.7,63.7,63.7
XS GIS Cut Line=2
511453.5054033595053922.44072122511145.5529117515054038.90954224
Node Last Edited Time=Oct/10/2025 10:46:08
#Sta/Elev= 0 
#Mann= 1 ,-1,0
       0   -9999       0
Bank Sta=162.2,171.3
XS Rating Curve= 0 ,0
XS HTab Horizontal Distribution= 5 , 5 , 5 
Exp/Cntr(USF)=0,0
Exp/Cntr=0.3,0.1

Type RM Length L Ch R = 1 ,855.4224,164.5,164.5,164.5
XS GIS Cut Line=2
511446.2005141295053862.06570861511107.3387474645053983.40838507
Node Last Edited Time=Oct/10/2025 10:46:08
#Sta/Elev= 0 
#Mann= 1 ,-1,0
       0   -9999       0
Bank Sta=189.3,198.3
XS Rating Curve= 0 ,0
XS HTab Horizontal Distribution= 5 , 5 , 5 
Exp/Cntr(USF)=0,0
Exp/Cntr=0.3,0.1

Type RM Length L Ch R = 1 ,690.9128,101.2,101.2,101.2
XS GIS Cut Line=2
511434.0509383715053747.47796906511124.9749481495053796.19554203
Node Last Edited Time=Oct/10/2025 10:46:08
#Sta/Elev= 0 
#Mann= 1 ,-1,0
       0   -9999       0
Bank Sta=178.7,187.8
XS Rating Curve= 0 ,0
XS HTab Horizontal Distribution= 5 , 5 , 5 
Exp/Cntr(USF)=0,0
Exp/Cntr=0.3,0.1

Type RM Length L Ch R = 1 ,589.6966,114.1,114.1,114.1
XS GIS Cut Line=2
 511445.334783965053660.03325687511123.9123261285053698.87372088
Node Last Edited Time=Oct/10/2025 10:46:08
#Sta/Elev= 0 
#Mann= 1 ,-1,0
       0   -9999       0
Bank Sta=198.3,210.2
XS Rating Curve= 0 ,0
XS HTab Horizontal Distribution= 5 , 5 , 5 
Exp/Cntr(USF)=0,0
Exp/Cntr=0.3,0.1

Type RM Length L Ch R = 1 ,475.5745,108,108,108
XS GIS Cut Line=2
511441.8051438135053562.70472767511161.1452858125053612.70603272
Node Last Edited Time=Oct/10/2025 10:46:08
#Sta/Elev= 0 
#Mann= 1 ,-1,0
       0   -9999       0
Bank Sta=153.9,163.9
XS Rating Curve= 0 ,0
XS HTab Horizontal Distribution= 5 , 5 , 5 
Exp/Cntr(USF)=0,0
Exp/Cntr=0.3,0.1

Type RM Length L Ch R = 1 ,367.6037,120.4,120.4,120.4
XS GIS Cut Line=2
511444.4554317755053465.38601382511174.9328022545053505.55235709
Node Last Edited Time=Oct/10/2025 10:46:08
#Sta/Elev= 0 
#Mann= 1 ,-1,0
       0   -9999       0
Bank Sta=162.4,171.4
XS Rating Curve= 0 ,0
XS HTab Horizontal Distribution= 5 , 5 , 5 
Exp/Cntr(USF)=0,0
Exp/Cntr=0.3,0.1

Type RM Length L Ch R = 1 ,247.1994,115.5,115.5,115.5
XS GIS Cut Line=2
511432.3839386385053307.67189181511180.0223290735053424.25254907
Node Last Edited Time=Oct/10/2025 10:46:08
#Sta/Elev= 0 
#Mann= 1 ,-1,0
       0   -9999       0
Bank Sta=150.1,158.3
XS Rating Curve= 0 ,0
XS HTab Horizontal Distribution= 5 , 5 , 5 
Exp/Cntr(USF)=0,0
Exp/Cntr=0.3,0.1

Type RM Length L Ch R = 1 ,131.6830,82.7,82.7,82.7
XS GIS Cut Line=2
 511291.69807356 5053184.2163773511186.2928642335053373.75316167
Node Last Edited Time=Oct/10/2025 10:46:08
#Sta/Elev= 0 
#Mann= 1 ,-1,0
       0   -9999       0
Bank Sta=99.4,109.8
XS Rating Curve= 0 ,0
XS HTab Horizontal Distribution= 5 , 5 , 5 
Exp/Cntr(USF)=0,0
Exp/Cntr=0.3,0.1

Type RM Length L Ch R = 1 ,49      ,,,
XS GIS Cut Line=2
511216.3822070385053137.26420723511110.9215273135053358.83497576
Node Last Edited Time=Oct/10/2025 10:46:08
#Sta/Elev= 0 
#Mann= 1 ,-1,0
       0   -9999       0
Bank Sta=97.7,107.9
XS Rating Curve= 0 ,0
XS HTab Horizontal Distribution= 5 , 5 , 5 
Exp/Cntr(USF)=0,0
Exp/Cntr=0.3,0.1

LCMann Time=Dec/30/1899 00:00:00
LCMann Region Time=Dec/30/1899 00:00:00
LCMann Table=0
Chan Stop Cuts=-1 



Use User Specified Reach Order=0
GIS Ratio Cuts To Invert=-1
GIS Limit At Bridges=0
Composite Channel Slope=5
