Geom Title=geo1
Program Version=6.60
Viewing Rectangle= 510730.468931578 , 512250.521182828 , 5055025.68115276 , 5052942.28685313 

River Reach=River 1         ,Reach 1         
Reach XY= 60 
511565.0022269825054897.04931228511548.4358830755054857.95274066
511530.5442316565054810.90432397511512.6525802375054767.16917605
 511490.785006285054734.03648824511466.2668172985054710.18095301
511445.7245508545054694.27726286511417.2304393345054686.98807155
511394.7002116215054672.40968891511384.0977515215054652.53007622
511372.8326376645054633.31311729511355.6036400015054600.18042947
 511346.989141175054579.63816303511336.3866810695054533.25240009
511331.0854510195054500.78236603511330.8454231035054472.14836094
511338.8966662425054436.18614159511344.2641616685054413.10591126
511338.8966662425054368.01894968511329.2351744765054333.13022942
 511321.720680885054317.02774314511315.8164359115054291.26376509
511315.8164359115054257.98529345511316.889934996 5054229.5375677
511317.4266845395054210.21458416511300.2506991765054176.93611252
 511290.589207415054149.56188585 511276.096969765054111.45266833
511302.397697347 5053993.9045185511254.0902385155053909.63484032
511244.4287467485053895.14260267511244.9654962915053878.50336685
511255.7004871425053853.81288789511266.9722275375053826.43866122
511262.6782311965053805.50542906511254.0902385155053777.05770331
511239.5980008655053749.14672709511229.9365090995053731.97074173
511234.7672549825053718.01525362511227.2527613865053707.28026277
511252.4799898875053666.48729753511274.4867211335053642.87031766
511288.9789587825053626.76783138511294.3464542085053604.76110014
511278.2439679315053581.14412026511272.339722962 5053567.7253817
511264.8252293665053540.88790457511270.729474335 5053517.2709247
511282.0012147295053475.94120992511287.9054596975053460.91222273
511293.272955123 5053437.8319924511295.9567028365053410.45776572
511293.8097046665053386.84078585511291.1259569535053365.90755369
511286.8319606125053343.90082244511280.9277156445053322.96759028
511271.2662238775053302.57110767511254.0902385155053282.71137459
511202.0255328855053255.33714792 511136.542088695053204.34594137
Rch Text X Y=511457.8871924,5054473.8734696
Reverse River Text= 0 

Type RM Length L Ch R = 1 ,1762    ,429,429,429
XS GIS Cut Line=2
512079.8850529685054745.55534579510843.7112790795054736.72553312
Node Last Edited Time=Oct/11/2025 05:13:05
#Sta/Elev= 451 
       0   212.8     4.3  212.68       6  212.51     7.8  212.45     9.6  212.76
    10.5  212.84    14.1  213.07    15.9  213.11    19.5  212.91      23  212.93
    26.6  212.54    34.7  212.81    37.4  212.65    40.9  212.67    42.7  212.38
    46.3  212.58    48.1  212.49    50.8  212.23    52.6  212.49    53.5  212.51
    55.2  212.53    57.9  212.36    61.5  212.32    72.2   212.7    76.5  212.74
      83  212.51    90.1  212.49    93.7  212.37    95.6   212.5   101.8  212.43
   104.4  212.51   106.2  212.43   111.6  212.48   114.3  212.37   120.5  212.43
     125  212.31   131.3  212.34   139.3  212.11   141.1  211.96   144.7  212.02
   147.4  211.89   151.9   212.1   155.1  212.02   159.9  212.04   166.2   211.9
     168  211.94   168.9  212.09   173.3  212.23     176  212.57   180.5  212.59
   183.2  213.21   187.6  213.72   189.4     214   190.3  214.33   192.1  214.57
   193.9  215.01   194.8  215.11   197.5   215.7   198.4  215.75   200.2   216.1
     202  216.32   204.6  216.86   205.5  216.93   207.3  217.32   209.1   217.4
   211.8  217.87   212.7   217.9   214.5  218.13   222.5  218.67   228.8  218.67
   236.8  218.79   241.4  218.75   244.1  218.86   245.7  219.21   246.7  219.34
   251.9  219.48   258.5  219.16     261  218.94   264.6  218.83   268.2  218.82
   269.9  218.91   277.1  218.88   280.7  219.11   284.3   219.2   295.9  219.29
   300.4  219.16   303.9  218.97   304.8  218.99     312  218.66   314.7  218.64
   322.7  218.36     329  218.28   336.9  217.86   337.9  217.75   341.5  217.72
   342.5  217.61   346.9  217.39   347.8  217.21   350.5  217.07   351.4  216.91
   354.1  216.73   355.8   216.3   356.7  216.14   366.6  214.97   367.5  214.93
   370.1  214.27   371.9  214.04   373.7  213.69   374.6  213.65   377.3  213.12
   378.2  213.03   380.7  212.44   381.8  212.36   384.5  211.87   385.4  211.83
   387.1  211.47   389.2  211.32   391.6     211   395.2   210.8   397.9  210.74
   400.6  210.77   403.6  210.67     405  210.54   409.5  210.35   417.6  210.46
   420.2  210.88   421.1  210.66   422.9  209.99   424.7  209.51   426.5  207.86
   430.1  207.09   432.8     207   435.4  207.08   441.7  207.06   446.2  207.26
     448  207.59   449.8  207.79   451.6   208.2   452.4  208.25   453.3  208.44
   455.1  209.19   457.8  209.75   459.6  210.03   461.5  210.99   462.4  211.27
   463.3  211.37   464.2  211.42     465  211.33   465.9  211.05   467.5  210.95
   471.2  211.07   483.8  210.86   485.5  210.97   487.4  210.95     490  211.21
   492.6  211.33   493.6  211.49   495.4  211.58   496.3  211.55   498.9  211.91
   500.8  212.34   502.7  212.55   503.4  212.69   504.3     213   505.4  213.17
   506.1  213.34   508.8  213.65   510.4  214.13   511.5  214.34   513.3  214.45
   516.9  214.51   518.6  214.23   520.2  214.11   522.2  213.74   523.7  213.57
   525.8  212.96   526.7  212.85   527.6  212.48   529.4  211.37   530.3  211.19
   531.2  210.74   532.1  210.52     533  210.48   540.1  210.61   541.9  210.54
   545.5  210.62   548.2  210.56   550.9  210.68   559.3  210.29     567  210.23
   568.7  210.14   570.5  210.22   571.7210.1933   572.3  210.18   573.5  209.58
     575  208.71   577.7  207.92   579.5  207.85   580.4   207.7   582.2  207.07
   583.1  206.94   584.8  206.49   585.7  206.41   586.5  206.47   587.4  206.83
   589.3  208.22   590.2  208.42     592  209.54   593.8  209.75   596.4  210.31
   597.4  210.39   598.2  210.61   599.2  210.75   602.4210.8993   603.7  210.96
   612.6  210.59   616.2   210.6   621.4  210.78     626  210.69   629.6  210.34
   630.6  210.04   631.4  209.87   634.1  209.83   634.9  209.73   636.7  209.69
   653.7  209.68   657.3  209.83     660  209.67   665.4   209.7   667.2  209.62
   668.9  209.74     673  209.82   681.5  209.76   684.1  209.93   693.1  209.66
   695.8  209.38   696.7  209.42   698.2  209.62   701.1   209.8   712.6   209.8
   719.8  209.64   721.7  209.75   723.5   209.6     728  209.44   735.1  209.05
     736  208.74   736.9  208.36   737.8  208.21   742.3  208.53   744.1  209.41
   744.9  209.59   748.7  210.05   750.3  210.07   752.9     210   756.6  209.78
   758.4  209.54   763.8  209.35   766.5  209.13   767.6  208.93   769.1  208.44
   771.8  207.99   772.7  207.93   773.6  207.94   773.9  207.97   775.4  208.29
   778.1  208.34     779  208.92   779.9  209.33   784.3  209.27     787  209.54
   787.9  209.48   790.6  209.06   793.3  208.78     796  208.78   797.8  208.42
   798.7  208.35   800.4  207.93   803.1  207.61     804  207.65   805.8  207.89
   807.1  208.22   808.5  208.71   813.9  209.42   820.1  209.56   821.9   209.5
   823.1  209.39   826.6   209.3   837.1  209.76     838   209.7   839.8   208.9
   839.9  208.88   840.6  208.79   840.7  208.77   840.8  208.72   841.7   208.4
   843.4  208.02   844.2  207.95   844.3  207.94   845.1  207.67   845.2  207.63
   846.1  207.04   846.2     207     847  206.64   848.8   206.5   851.5  206.65
   853.2  206.88   855.9  207.13   856.8  207.36   857.7  207.72   858.6  207.81
   858.6  207.82   859.2  207.94   859.5     208     872  207.68   872.1   207.7
   872.8  207.86   873.8  208.16   874.8  208.23   887.2   208.5   887.9  208.59
     889  208.82   891.7   209.1   892.6  209.29   895.3  209.47   897.7  209.38
   899.5  209.14   900.9  209.13   902.4  208.99   915.4  209.47   920.3  209.85
   924.8  209.91   926.6  209.86     932   209.9   934.3  209.83   937.3  210.02
   948.1  209.55   948.9  209.63   951.9   209.7   953.4  209.62   955.2  209.39
   956.1  209.49     957  209.63   958.8  209.48   961.5  209.61   964.9   209.6
     967  209.45   971.3  209.81   972.2  209.75   973.1  209.31     974  208.51
   975.7  207.74   975.8  207.73   977.5  207.97   978.4  208.01   978.5  208.01
   982.1  208.49   984.7   209.1   985.6  209.16   987.4  209.53   989.2   209.6
     991  209.75   994.5  209.69     999   209.8  1002.6  209.59    1008  209.46
  1013.6  209.67  1019.6  209.38  1024.1   209.4  1026.8  209.28  1030.4  209.55
  1047.4  210.03    1050  210.19  1052.3  210.13  1055.4  209.95  1063.1  209.97
  1066.1  209.88  1069.4     210  1072.7  209.94  1075.1  209.98  1079.3  210.29
  1081.4  210.34  1088.7  210.23  1092.1  210.26  1093.9  210.12  1099.2   210.3
  1105.5  210.16  1107.3   210.2  1110.9  210.57  1111.8  210.45  1115.3  210.32
  1126.1  210.48  1127.7  207.24  1128.6  206.41  1128.8  206.28  1128.9  206.23
  1129.7  205.99  1129.8  206.01  1130.6  206.08  1131.4  206.07  1132.2  205.56
  1132.3  205.45  1133.4   205.1    1134  205.07  1134.1  205.01  1134.3  205.04
  1134.8  205.55    1135  205.58  1135.9  206.94  1136.8  207.95    1137  207.91
  1137.7  207.67  1138.4  207.55  1139.5  207.95  1140.4  208.04  1141.3  208.76
  1142.2  209.88  1142.8  210.41  1143.1  210.52  1145.5  210.53  1148.4  210.35
  1153.8  210.16  1157.9  210.19    1161  210.05  1163.7  210.13  1167.2  209.98
    1169   210.1  1169.9  210.08  1170.8  209.88  1172.6  209.91  1175.3  210.15
  1176.2  210.14  1176.6  210.07  1177.1  209.98    1178  209.97  1180.7  210.01
  1182.4  210.12    1186  210.08  1189.6   210.2  1191.4  210.19    1195  210.35
  1196.8  210.23    1197  210.23  1197.4  210.24  1197.6  210.24  1201.2  210.38
  1207.5  210.32  1213.8  210.11  1216.4  210.17  1220.9  209.99  1231.6  210.15
  1236.2  210.09
#Mann= 1 ,-1,0
       0    .035       0
Levee=-1,570.89,210.38,-1,603.26,211.07,,
Bank Sta=571.7,602.4
XS Rating Curve= 0 ,0
XS HTab Starting El and Incr=206.56,0.3, 43 
XS HTab Horizontal Distribution= 5 , 5 , 5 
Exp/Cntr(USF)=0,0
Exp/Cntr=0.3,0.1

Type RM Length L Ch R = 1 ,1333    ,178.3,178.3,178.3
XS GIS Cut Line=2
512168.1831796745054361.45849461510848.126185414 5054396.7777453
Node Last Edited Time=Oct/11/2025 05:13:23
#Sta/Elev= 451 
       0  212.06     2.2  212.17    10.3   212.1    12.9  212.23    15.7  212.02
    19.1  212.18      21  212.07    21.9  212.11    22.8   212.3    23.7  212.38
    25.5  212.28    28.5  212.23    32.6  212.35      38  212.12    42.5  212.39
    44.3  212.16    45.2  212.12    47.8  212.08    50.5  212.24    53.2  211.98
    54.1  211.99    55.9  212.21    57.5  212.28    61.3  212.11    64.8  212.29
    67.5   212.1    70.2  212.49    76.5  212.16    80.1  212.35    82.8  212.08
      88  212.34    96.2  212.53   100.6  212.36   105.7   212.5   110.3  212.43
   113.2  212.53   114.1  212.51   116.7  212.17   117.6  212.16   118.5   212.2
   120.3  212.41   122.1  212.47     123  212.46   123.9  212.35   128.4   212.3
   131.1  212.54   136.4  212.45   137.3  212.34   138.2  212.32   143.6  212.53
   151.6  212.39   155.2  212.55     157  212.52   158.1  212.41   161.5  212.51
   163.3  212.32   167.8  212.25   170.4  212.38   172.2  212.26   173.7  212.26
   175.8  212.12   177.6  212.09   178.5  211.93   180.2  211.76   182.1  211.65
   186.5  211.81   189.2  211.66   190.1  211.69   193.7  211.59   195.5  211.41
   196.4  211.41   197.3  211.55     200  211.43   202.7  211.47   210.7  211.19
   214.3   211.2   216.1  211.08   217.9  211.08   221.4  210.95   223.2  210.99
   233.1  210.74   241.1  210.64   242.9  210.44   244.7   210.4   246.5  210.21
   250.1  210.03   251.9  209.87   253.7  209.59   255.5  209.42   258.1  208.63
   259.9  208.46   261.7  208.45   264.4  209.07   266.2  209.29   267.1  209.49
   269.8  209.52   275.1  209.18     276  209.07   277.8     209   282.4  209.11
   285.9  208.96   290.5   208.9     293     209   297.5   208.8   305.6  208.79
   306.5  208.73   322.6  208.75   325.3  208.65   330.6  208.77   334.2  208.75
   339.6  208.54   342.3  208.37   344.9  208.39   346.6  208.32   347.5  208.38
   354.8  208.32   355.7  208.39   359.3   208.3   360.2   208.4   361.1  208.39
   361.9  208.24   362.8   207.8   363.7  207.53   364.6  207.52   366.4  208.15
   367.3  208.28   369.1  208.27   371.8  208.39   372.7  208.52   373.6  208.56
   378.1  208.61   389.7  208.43   390.4  208.34   391.5   208.3   392.4  208.36
   394.2  208.27   397.7  208.31   399.5  208.25   401.3  208.34   402.2  208.29
   410.3  208.38   412.1   208.5     413  208.19   413.9  208.07   414.7  207.88
   414.7  207.85   415.6  207.82   421.8  207.97   435.3  207.94   446.8   208.1
   451.4  208.03   456.8  208.13   458.6  208.07   460.4   208.1   466.3  208.01
   468.4  208.06   480.1  207.94   488.2  207.93   489.9  207.98   493.5  207.81
   496.2  207.87   497.1  207.68     498  207.63   498.9  207.66   501.1  207.93
   504.2  208.15   506.9  208.26   515.9  208.34   516.7  208.32   517.7   208.2
   545.4  208.42   551.7  208.17   555.2  208.19     557  208.31   559.7  208.29
   568.7  207.92   571.4  207.87   578.3  207.97   579.4  207.91   580.4  207.92
   583.8  208.03   585.7  207.94     593  208.07   607.5  208.11   609.2  208.06
   611.6   207.9   616.1  207.88   620.6  207.76   623.3   207.8     625  208.01
   629.5  208.13   630.4  208.11   632.2  207.92   633.5   207.9   637.1  207.88
   644.9  208.06   648.3  207.86   650.2  207.93   651.9  207.81   652.3  207.85
   652.8  207.91   654.6  207.89   656.4  207.77   657.1  207.86   657.4  207.87
   658.2  207.88   659.9  207.73   661.5  207.84   662.6  207.99   663.5  208.02
   675.2  208.07   684.1  207.87   687.7  207.99   688.5  207.92   689.4  207.77
   691.3  207.24     694  207.41   695.7  208.01   697.2  208.08   702.9  208.02
   707.4  208.14   719.9  208.02   723.5  207.85   724.4   207.9   726.2  207.87
     728  208.06   728.2  208.06   728.6  208.07     731     208   737.8   208.1
   740.5  208.03   741.7  208.12   746.9   208.2   747.8  208.17   750.3  207.94
   752.1  207.65     753  207.59   753.9  207.38   755.7  206.85   755.8  206.84
   756.6  206.72   757.5  206.68   758.4  207.15   758.5  207.33   759.3  208.13
   761.1  208.58     762  208.57   763.1  208.43   763.8  208.38   764.7  208.35
   771.8  208.27   773.6  208.05   774.5  208.01   779.7  208.22   786.1  208.37
   788.7  208.31   793.3   207.9   794.4  207.93   795.1  208.01   800.9  208.11
   806.7  207.74   812.2 207.871     813  207.89   815.7  207.77   820.2  207.89
     821  208.01   821.9  207.97   822.7  207.68   822.8  207.61   822.9  207.55
   823.6  207.36   823.7  207.29   824.6  205.28   824.8  205.16   825.3  204.44
   825.5   204.3   826.4  204.28   828.2  204.35   829.1  204.74   829.3  204.89
     830  205.25   830.9  205.36   837.1  205.57   841.6  205.48   842.7205.5228
   843.4  205.55   844.3   205.5   845.4  205.53     848  205.93   848.8  205.98
   851.4  206.41   852.3  206.47   852.4  206.47     855  206.97   855.1  206.97
   855.9  207.02   857.7  207.37   859.5  207.57   862.2  207.74   867.6   207.6
   870.2  207.64   876.5  207.57   880.1  207.62   885.4  207.93   916.7  208.12
     923  208.08   925.7  208.25   927.3  208.28   936.5  208.05   938.3  208.11
   954.4  208.13   955.2  208.05   955.3  208.04   956.1  207.83     957  207.72
   961.5  207.72   963.3  207.61   965.1  207.74   966.5  207.92   968.3   208.1
   970.5  208.17   974.1  208.17   975.8  208.25   976.7  208.23   978.3  208.04
   981.2  207.81     982   207.8   989.3  207.87   992.1  207.75  1008.4  208.12
  1011.6  208.02  1013.2   207.9  1016.9  208.02  1019.7  207.99  1022.4  208.05
  1025.8  207.76    1027  207.69  1028.6  207.66    1031  207.89    1034  207.95
  1036.7  208.18  1038.9  208.05    1043  208.12  1044.8   207.9  1047.3  208.08
    1050  208.01  1053.6  208.18  1055.5  208.11  1057.4  208.18  1058.1  208.26
  1058.3  208.28  1062.7  208.39    1068  208.37  1068.9  208.32  1071.6  208.37
  1074.3  208.12  1079.8  208.18  1093.8  207.88  1097.3  207.88  1097.6  207.87
  1098.4   207.8  1104.7  207.76  1106.5  207.82  1110.1  207.83  1112.8  208.02
  1120.8  208.09  1124.4  208.29  1125.3  208.27  1125.4  208.26  1126.2  208.13
  1127.1  208.24  1127.3  208.25  1127.8  208.28    1128  208.29  1132.1  208.26
  1132.5  208.26  1133.3  208.35    1136  208.39  1140.5  208.38  1141.4  208.34
  1142.3  208.33  1143.2  208.24  1144.1  208.09    1145  208.05  1151.3  208.23
  1159.3  208.18    1162  208.05  1164.7  208.13    1170  208.09  1170.5  208.07
  1171.4  207.95  1172.7  207.56  1173.6  207.35  1175.4  207.27  1176.3   207.1
  1177.2  207.18  1177.5  207.37  1177.8  207.68  1178.1  207.85  1179.2  207.93
  1180.8   208.2    1181  208.21  1181.7  208.29  1194.2  208.26    1196  208.35
  1201.7  208.29  1204.9  208.43  1207.6  208.33  1210.3  208.46    1213  208.42
  1218.3  208.56  1222.8  208.51  1226.3  208.68  1227.1  208.65  1229.8  208.68
  1235.4   208.5    1245  208.46  1247.9  208.54  1250.6  208.15  1255.9  208.32
  1260.4  208.11  1263.8  208.06  1264.6  208.06  1264.9  208.07  1265.2   208.1
  1265.5  208.14  1265.8  208.18  1266.7  208.22    1273  208.28  1273.3  208.26
  1273.5  208.26  1274.7  208.14    1276  208.14  1276.5  208.15  1276.8  208.15
  1281.7     208  1283.7  208.02  1285.5  208.15  1288.2  207.84  1290.8  207.89
  1290.9  207.89  1291.9  207.78  1292.5   207.7  1292.6  207.68  1297.1  207.92
  1300.7  207.81  1308.7  207.93  1310.5  207.85  1318.6  207.83  1318.7  207.83
  1320.5  207.73
#Mann= 1 ,-1,0
       0    .035       0
Levee=-1,811.46,207.99,-1,915.92,208.14,,
#XS Ineff= 2 , 0 
       0  762.98  208.59  925.82       0  208.37
Permanent Ineff=
       T       T
Bank Sta=812.2,916.7
XS Rating Curve= 0 ,0
XS HTab Starting El and Incr=204.43,0.3, 27 
XS HTab Horizontal Distribution= 5 , 5 , 5 
Exp/Cntr(USF)=0,0
Exp/Cntr=0.3,0.1

Type RM Length L Ch R = 1 ,1155    ,138.9,138.9,138.9
XS GIS Cut Line=2
 512181.427898685054176.03242853510799.5622157265054229.01130455
Node Last Edited Time=Oct/11/2025 05:13:32
#Sta/Elev= 452 
       0  211.25       2  211.28     3.8  211.45     8.3  211.39    10.1  211.45
    11.9  211.39    13.7  211.23    16.4  211.23    18.1   211.1    22.6  211.42
    29.8  211.43    31.6  211.33    33.4  211.45    35.1   211.3    37.8   211.3
    39.6  211.16    52.2  211.17    55.7   211.3    57.5  211.51    59.3  211.55
    72.7  211.46    74.5  211.37    75.4  211.42    76.3  211.38    78.1  210.86
      79   210.8    84.4  210.94    86.2  211.19      88  211.19    92.4  210.98
    96.9  211.03   100.5  211.37   105.9  211.33   106.9  211.44   109.5  211.52
   110.3  211.44   114.8  211.37   129.1  211.41   136.3  211.35     139  211.18
   146.2  210.94   150.6  210.89   152.4  210.98   155.2  210.91   159.5  211.01
   167.6  210.78   170.3  211.05   172.1  211.15     182  210.33   182.9  210.19
   190.9  210.02   194.5  209.98   197.2  210.03   199.9  209.85   203.5  209.44
   204.3  209.25   206.1   209.1   210.6  208.97   214.2  208.71   215.1  208.58
   218.7  208.53   220.5  208.38   221.4  207.78   222.3  206.38   223.1  205.97
   225.8     206   227.6  206.39   228.5  206.45   230.2  206.76   231.2  206.82
     232  206.96   233.9  207.43   234.8  207.47   236.6  207.39   238.4  207.17
   243.7  206.92   252.7   206.8   254.5  206.87   257.2  206.72   264.3  206.87
   266.1  206.72   270.4   206.6   273.3  206.38   276.9  206.36   280.4  206.25
   283.1  206.37   286.7  206.41   292.1  206.45   293.2  206.35   296.5  206.44
   299.2  206.43   301.9  206.67   305.5  206.72   307.3  206.69   308.2  206.58
   311.8  206.42   314.5  206.52   316.3   206.5     318   206.6   321.6  206.49
   325.1  206.58     327   206.5   327.9  206.63   329.7  206.69   335.1  206.53
   336.8  206.67   342.2  206.54   344.9  206.61   345.8  206.54   347.6   206.6
   353.5  206.58   361.9  206.84   364.6  206.75   369.1  206.77   371.8  206.67
   374.2  206.75   377.1   206.7   378.9  206.82   385.2  206.75     387  206.83
   391.5  206.83     395  206.94   399.5  207.19   402.2   207.2   403.1   207.3
   405.8  207.26   409.4  207.71   411.1   207.6   419.2  207.52     421  207.41
   423.7  207.45   427.3  207.34   429.1  207.37   435.3  207.06   437.2  207.18
   441.6  207.06   443.4  207.11   446.1  207.52     447  207.55   454.1  207.45
   455.9  207.21   457.7   207.1   461.3   207.2   463.1  207.33   465.8  207.31
   467.5  207.05   469.6  206.94   476.5  207.08   480.1  207.04   481.9  206.91
   483.7  206.62   487.2  206.84   490.1  206.88   494.4  206.75   502.5  206.93
   507.8  206.75   525.7  207.08   529.2  206.93   531.1  206.95   539.2  206.63
     541  206.32   542.7  206.35   544.5  206.59   549.2   206.6   551.7  206.74
   557.1  206.77   560.7  206.95   562.7   207.3   566.9  207.59   572.3  207.76
   575.8  207.68   578.6  207.72   583.2  207.45   588.4  207.34   594.7  206.88
   595.6  206.91   596.2  207.02   597.4  207.14   599.1  207.04     600  207.07
   602.7  206.98   605.4  206.72   615.3  206.75   618.8  206.63   625.1  206.72
   630.5  206.63   634.6  206.65   637.6  206.53   647.5  206.59   650.2  206.53
   653.8  206.72   655.5   206.7   656.2   206.8   656.8  206.86   657.3  206.88
   659.1  206.78   664.5  206.94   667.2  206.83   669.9  206.94   681.5  206.89
   686.9     207   689.6  206.95   695.8  207.04   697.7  206.91   698.5  206.92
   700.3  207.09   720.8  207.21   722.7  207.12   728.1   207.1     729  207.13
   729.9   207.3   735.2  207.21   737.7  207.37   741.5   207.4   743.3  207.23
   745.1  207.25   746.1  206.97   746.7  206.87   747.8  206.79   749.5   206.4
   751.3  206.49   755.8  206.97   759.4  207.04   762.1   207.2   764.7  207.44
   771.7  207.19   776.4  207.61   778.2  207.84   780.9  207.93   782.7  208.08
   788.1  208.12   791.6  208.05   792.4  207.93   795.2  207.73   800.6  207.59
   802.4  207.42   805.1  207.51   806.8  207.27   809.4  207.12   812.2  207.18
   813.1  207.37     814   207.5   819.4  207.63   822.6  207.61   824.7  207.48
   833.7  207.26   834.6  207.34   835.5  206.98   836.4  206.81   838.1  206.07
   838.2  206.04   839.1  206.02   840.7  206.12   841.8  206.57   842.7  207.07
   844.4  207.31   846.2  207.25   848.9  207.02   851.2207.1797   852.5  207.27
   854.3  207.27   856.1  207.17   856.9  207.15   858.8  207.18   860.6  207.09
   860.6  206.99   861.5  205.76   862.3  203.23   862.5  203.15   863.1   202.8
   863.2  202.71   865.9  202.74   867.7  202.96   868.3  203.34   869.5  204.48
   870.4  205.59   872.2  206.41   873.1  206.64   875.8  206.53   879.2  206.65
   880.7206.6026   881.1  206.59   883.8  206.72   886.7  206.72   890.1  206.83
   892.8   206.8   895.5  206.67   898.2  206.84   901.7  206.92   903.5  206.93
     907  206.83     909  207.04   909.8  207.07   913.4  207.02   914.6  207.09
   916.1  207.04   918.7  207.08     920  207.06   921.4  206.95   923.9  207.05
   925.2  207.05   927.7  206.96   930.3  206.71   933.1  206.59   934.2  206.73
   937.5  206.94   940.2  206.94   943.3  207.05   949.2   206.9   950.9  206.73
     951  206.73   951.9   206.7     964  206.73     970  206.57   972.6   206.6
   975.1  206.48   978.6  206.47   984.6   206.6   987.7  206.53   991.3  206.61
   993.9  206.94  1000.3  206.92    1002  207.04  1005.6     207  1006.5  207.11
  1007.4  207.13  1009.6  206.92  1011.4  206.98  1013.6   206.9    1014  206.84
  1014.5  206.73  1014.8  206.64  1015.4  206.42  1016.1  206.36  1017.4  206.16
    1019  205.84  1022.6   205.5  1024.4  205.52  1025.2   205.6  1027.1  205.68
    1028  205.92  1028.6  206.22  1029.5  206.49  1029.8  206.55  1031.5  206.65
  1034.2  206.69    1036  206.62  1036.9   206.7  1049.4  206.67  1052.1  206.82
  1054.8  207.13  1055.7  207.16  1057.5  207.35  1060.2  207.48    1069  207.37
  1075.4  207.42  1077.2  207.34  1087.2  207.45  1089.7  207.58  1092.4  207.59
  1095.1  207.51  1110.5  207.66  1112.1  207.65  1114.8  207.52  1118.3  207.65
    1122  207.61  1124.6  207.86  1133.6  207.52  1135.4  207.62  1137.2  207.48
  1141.6  207.33  1143.3  207.45  1145.2  207.43    1147  207.52  1148.3  207.66
  1151.5  207.62  1152.9  207.43  1155.1  207.28  1163.1  207.57  1164.9   207.5
  1166.6   207.3  1167.6  207.27  1178.4   207.5  1186.4  207.36  1189.2  207.55
  1192.7  207.65  1197.6  207.35  1203.2   207.2  1205.2  207.25    1207   207.2
    1214  207.34  1215.1   207.3    1216  207.17  1217.2  207.14  1219.2  207.28
  1219.5  207.33  1224.3  207.32  1226.7  207.45  1228.5  207.41  1230.4  207.13
  1231.2   207.1    1233  207.16  1237.4     207  1240.1  207.27  1243.2  207.31
  1247.3  206.87  1251.6   207.1    1258  206.96  1261.9  207.24  1264.3  207.19
  1269.3  206.83  1269.7   206.8    1270  206.79  1270.2  206.79  1270.6  206.78
  1270.9  206.78  1271.2  206.77  1271.5  206.77  1271.8  206.81  1272.1  206.86
  1272.4   206.9    1273  206.92  1277.7  206.89  1279.5  207.27  1282.1  207.26
  1284.9  207.19    1287  206.78  1288.5  206.81  1290.3  206.73  1293.8   206.8
  1299.1   206.7    1301  206.89  1305.5   206.8  1308.8  206.88  1313.5   206.7
    1318  206.42  1321.8  206.46  1329.5  206.32  1335.9  206.58  1339.5  206.47
  1342.2  206.48  1344.7   206.5  1347.5  206.64  1351.1  206.57  1356.5  206.68
  1358.3   206.5    1361  206.62  1364.6  206.35  1372.6  206.54  1374.3  206.53
  1376.4  206.43  1382.9  206.56
#Mann= 1 ,-1,0
       0    .035       0
Levee=-1,850.45,207.19,-1,884.29,206.73,,
#XS Ineff= 2 , 0 
       0  775.27  208.12 1122.46       0  207.97
Permanent Ineff=
       T       T
Bank Sta=851.2,886.7
XS Rating Curve= 0 ,0
XS HTab Starting El and Incr=202.86,0.3, 29 
XS HTab Horizontal Distribution= 5 , 5 , 5 
Exp/Cntr(USF)=0,0
Exp/Cntr=0.3,0.1

Type RM Length L Ch R = 1 ,1016    ,178.1,178.1,178.1
XS GIS Cut Line=2
512128.449022656 5054034.7554258510874.6156234265054100.97902083
Node Last Edited Time=Oct/11/2025 05:13:40
#Sta/Elev= 452 
       0  211.09     2.7  211.07     5.4  211.16     7.2  210.94       9  210.86
    12.6  210.94    14.4  210.88    16.2  210.92    18.8   210.7    20.6  210.31
    21.5   210.2    24.2  210.08    26.9  210.14    29.6  209.87    30.5  209.66
    32.1   209.7    34.1  209.61    37.7  209.78    39.5  209.99    41.2  210.34
    42.1   210.4    43.9  210.36    47.5  210.67    58.3  210.53    61.8  210.39
    63.6  210.47    67.2  210.25    73.5  210.03    77.1  210.08    81.6     210
    84.2  210.07    86.9  210.04    89.6  210.15    97.7  209.92    99.5  210.03
   108.4  210.21   109.3  210.12   111.1  210.18   113.8   210.1   114.7  210.16
   118.3  210.12   120.1  209.86     121  209.81   121.9  209.81   123.7     210
   125.5  209.84   128.1     210   130.8  210.45   132.6  210.53   136.2  210.36
     138  210.38   139.8   210.3   146.1  210.39     158  210.29   159.5  210.38
   164.9  210.41   165.7  210.12   167.6  209.11   169.3  207.19   170.2  206.96
   171.1  206.47   172.9  206.32   178.5  206.41     181  206.57   187.3  206.36
   202.5   206.1   203.4  205.99   204.3  205.63   205.2  204.97   206.1   204.7
     207  203.85   207.9   203.5   208.8  203.43   221.9  203.34   223.1  203.34
   224.9  205.33   225.8  205.66   228.5  205.87   233.8  205.66   237.4  205.85
   240.1  206.18   244.8  206.13   250.9  206.22   253.6  206.14   257.1  206.18
   261.6  206.12   264.3  206.19     267  206.17   267.9  206.03   271.5  206.17
   276.8  206.03   277.7  206.04   279.5  206.23     284  206.02   284.9  206.12
   287.6  206.16   292.1  205.88     293  205.97   295.9  205.96   298.3  206.06
   300.1  205.78   302.7  205.63   303.7   205.7   305.5  205.54   308.2  205.67
   313.6  205.34   318.1  205.25   322.5  205.31   324.3  205.41   326.1  205.35
   328.8  205.79   330.6  205.92   333.3   205.9   335.1  206.04   336.9  206.02
   338.7  206.12   341.3  206.12   345.8  206.27   350.3  206.27   351.2  205.79
   352.1  204.95     353  204.97   353.9  205.43   355.7  206.04   357.5  205.73
   358.4  205.38   359.3  205.25   368.2  205.13   382.6  205.18   384.4  205.09
     387  205.15   387.8  205.32   388.8  205.73   392.4  205.92   397.8  205.87
   399.6  205.98   410.3  205.88   416.6  205.99   420.1  205.83   421.8  205.91
   423.8  205.82     430  206.01   432.5   205.9   435.4  205.98   442.6  205.59
   445.3  205.38   450.6  205.18   459.6  205.93   464.4  205.99   467.8  205.88
   470.3  205.33   472.1  205.06     473  204.82   474.8  204.72   475.7  205.16
   476.6  205.85   477.1  205.89   483.9  205.88   486.5  205.95   488.3  205.89
   496.8  206.01     499  205.91   501.6   205.9   509.8   206.3   512.4  206.69
   513.3  206.76   515.1  207.15   517.8  207.27   519.6  207.48   521.4   207.5
   526.8  207.37   529.5   207.4   533.9  207.05   539.3  207.31   543.8  207.35
   549.2  207.22   551.7  207.34   555.5  207.32   558.1  207.17   559.7  207.21
   561.7  207.04   565.3  206.91     568     207   574.3  206.95   576.1  207.03
   578.7  206.91   580.5  206.95     585  206.74   586.8  206.54   587.7  206.52
   589.5  206.23   591.3  206.23     594  206.08   596.7  206.13   605.6  206.02
   608.5  206.09     611  205.89   625.3  206.15   630.7  206.08   638.8  206.29
   648.6  206.33   649.5  206.42   649.9  206.42   650.4  206.44   653.1   206.3
   655.7  206.32   657.6  206.19   663.8  206.25   665.2  206.14   666.9   206.1
     669  206.12     671  206.26   677.3  206.16   679.1  206.33   681.3  206.29
   683.5  206.42   684.4  206.42   686.2  206.18     688   206.3   692.5  206.19
   697.9  206.24   698.8  206.33   702.4  206.38     705  206.02   706.8  205.44
   708.6  205.21   709.5  205.43   710.3  206.55   710.4  206.78   711.3  207.22
   716.7  207.34   722.1  207.23     723  207.29   723.9  207.55   724.7   207.9
   725.7  208.06   726.5  208.04   727.3  207.92   728.3  207.63     731  207.38
   736.6  207.49   737.5   207.4   739.1  207.06   740.9  206.99   741.8  207.12
   743.5  206.99   744.5  207.04   746.5  206.72   751.6  206.77   758.8  206.65