Geom Title=geo1
Program Version=6.60
Viewing Rectangle= 507239.728386797 , 511998.723485931 , 5063257.71544702 , 5052720.36297427 

River Reach=River 1         ,Reach 1         
Reach XY= 153 
511135.9166381315053204.88084954 511099.930793335053283.66457579
511057.787516481 5053350.1168707 510989.719095245053399.27557998
510943.8028347145053503.91119784510920.2520519565053542.06017165
510908.9990202045053615.95634651 510873.080580925053659.01088881
510824.820099327 5053692.1886795 510819.618034285053841.23881136
510836.7907317165053916.41276347 510825.590591615053960.74030374
510776.0011408215054049.34753251510734.9520001345054203.25474362
510703.8548654945054320.22204949510682.6011679025054463.07111318
510657.7440950095054545.55582809510655.1337878095054626.84575315
510737.6767806045054774.79242438510714.0622799395054853.57991808
510775.6895423715054946.06134672510754.5381156415055029.77737784
510737.0794727385055122.12011481 510675.099591295055236.55419581
510636.7123587985055284.52110917510663.8103716355055335.06257752
510715.6057159595055394.26713171510719.1243883825055503.88236784
510769.7332027765055533.52668275510783.2545907545055574.19096097
510877.0114515065055659.32927959510885.392021927 5055813.2823716
510848.2101307445055879.71789769 510780.096426615055971.96018591
510750.2998988885056055.64762263510726.745054975  5056102.401837
 510619.058680095056219.20301146510601.6806131065056267.19838898
510573.2756038765056260.99318164510565.8045014215056295.45976642
510610.1361906595056380.50086209510519.8272267575056452.99905545
 510449.422884075056444.26119882510403.5563776485056537.76788901
510381.204463275 5056606.6859041  510395.85679365056710.14173426
 510369.809748895056772.89522279510297.9946369525056872.51113653
510273.1318653795056967.27835017510186.3522545095057155.51694083
510203.6058751965057180.16966494510228.3315200545057167.89789566
510254.1994590215057212.26435781510298.4922521215057319.45236038
510248.8599537655057454.80083496510230.0894088585057602.50873506
510196.5682495035057707.10000232510150.7468107865057780.89209102
510135.8049411245057854.73374235510116.0127629975057873.16796513
510076.5401216495057841.09570224510066.6569977485057842.31083975
 510004.811049725057897.61033654510008.3307706165058013.33675128
510015.5694463495058120.44973448509937.6001085085058220.03844268
509864.6532729145058269.16325353509800.3954749675058291.22010167
509769.4362396115058344.10456568509789.0848581225058415.53271245
509786.5259481335058472.15359493  509796.3190755  5058527.562398
509741.9115068325058570.56061235 509773.745575485058746.63397163
509745.2202488335058824.13660045509736.5467894955058842.58654675
509773.5468727385058873.41679667509788.2424715135058952.21642809
509788.0396035785059081.45679792 509763.295421885059110.95836058
509760.7716927645059145.41798101509728.6071035275059182.29275911
509743.3659987795059220.47145529509696.3175252855059299.78574061
509664.1245424385059355.73727936 509657.909342745059382.18973147
509629.4871856565059395.68446719509589.3020726755059430.08453747
 509580.003045225059454.68584369509514.5452461225059462.58565896
 509481.786929635059485.92045562509450.239418407 5059525.2571201
509437.8382359255059560.31500242509380.1570173585059734.99298144
509367.7853073755059750.97375119509324.5575323265059758.29325736
509289.3347157655059779.77819977509256.6227656955059773.57597172
509239.9234189155059793.85796038509200.916921476 5059869.4885279
509185.4518418755059890.38751834509152.7096535165059905.10764513
509102.0011405635059962.87551343509071.1151904895059975.13725701
509043.9049455955060007.09519319509019.1510384315060048.28660004
508977.1338593755060074.06977143508967.1925305155060118.35890978
508951.0956033265060150.33251373508886.8332335925060191.46689219
508881.8682255685060209.91927683508902.1937503225060242.55985396
508891.6736332255060260.38883987508873.7613885845060267.13171505
508854.6066561485060279.41064037508820.5542737285060349.50703826
508772.3589535055060380.81928182508736.4888831865060427.53134891
508541.2487797985060550.31814178508506.6647192685060561.34589106
507975.2783812385060956.87090588507820.8207495095061069.87844218
507778.8507509945061067.36499143507747.9285226875061115.31422058
507705.9694529945061104.18812903507692.3505142555061136.16298923
  507630.55374735061195.14815732507628.0004451645061264.04899734
507584.7522856085061298.44790413507571.1209366775061341.49568372
507551.3503811795061357.46695015507515.4431412675061447.24230059
 507530.214633555061481.71082569507456.0463458485061567.74752948
507538.6188802165061677.34811008507543.4402157655061773.31973692
507489.092765643 5061802.7818117507502.5862400945061872.92563385
507534.6062474035061933.24876925507613.5868899575061946.87796408
507741.9096355615061985.17489837507872.809819981 5061936.1275551
507947.9517293535062055.55991865507986.0480646975062186.01549859
507999.4166201845062348.42230892 507980.820927975062412.36898465
507953.6096137185062457.85127365507949.8095886115062534.11756801
507959.5763879485062617.78119845507970.6243270675062664.54107554
507934.7968842385062692.78864063507895.2516483825062733.33291312
507813.7391623315062778.74488008
Rch Text X Y=,
Reverse River Text= 0 

River Reach=River 2         ,Reach 2         
Reach XY= 49 
511134.0724288835053199.33354122511201.3405683355053253.66179324
511263.6989213565053288.26967533511287.7015979815053343.75221456
511297.4829124215053402.90452018511293.701347188 5053443.5524132
511264.4839782725053538.35967267511271.8399206265053571.63520638
511293.4151343885053601.85644996511289.6604307255053627.72006677
511264.2773687685053652.92857945511228.3400762585053705.22010694
511232.6083402495053737.25726171511256.627314386 5053782.8806364
511267.0617430165053822.31984037511262.0813404835053842.63690007
511244.7206010015053874.63440138511243.448083237  5053894.957983
 511303.217600975053990.53499631511298.2182712775054021.32213512
511274.576083558 5054109.9715783511304.7202696615054184.55116143
511320.7295924155054215.99129915511313.8029291995054287.42310293
511335.3229129535054346.58787754 511343.838380385054421.12562963
511328.9202775375054469.75311926511341.7352035035054558.46222664
511360.177973237  5054610.228584511393.4328428255054671.25946543
511446.5246683685054696.60671559511501.4220602225054747.82344282
  511560.47604475054889.57666339511622.0812712655054986.99256749
511655.2292505045055102.82891056511669.3935844295055127.48797735
511738.509450332 5055171.3401886511753.9054878415055197.84891871
511741.3473108875055304.97481931511732.5542934195055381.31660883
511732.4663393185055428.11624599511760.8206430055055462.65344148
511782.4055268795055483.01489095511779.2247112165055531.65525897
511739.5604477435055598.08382949511738.8859143375055628.25511711
511753.6444777535055664.61291717511751.581295136 5055776.0608609
511753.9121008595055850.57061783
Rch Text X Y=,
Reverse River Text= 0 

LCMann Time=Dec/30/1899 00:00:00
LCMann Region Time=Dec/30/1899 00:00:00
LCMann Table=0
Chan Stop Cuts=-1 



Use User Specified Reach Order=0
GIS Ratio Cuts To Invert=-1
GIS Limit At Bridges=0
Composite Channel Slope=5
