Geom Title=geo1
Program Version=6.60
Viewing Rectangle= 506723.221322682 , 512700.301787392 , 5063257.71544702 , 5052720.36297427 

River Reach=River 1         ,Reach 1         
Reach XY= 153 
507813.7391623315062778.74488008507895.2516483825062733.33291312
507934.7968842385062692.78864063507970.6243270675062664.54107554
507959.5763879485062617.78119845507949.8095886115062534.11756801
507953.6096137185062457.85127365 507980.820927975062412.36898465
507999.4166201845062348.42230892507986.0480646975062186.01549859
507947.9517293535062055.55991865507872.809819981 5061936.1275551
507741.9096355615061985.17489837507613.5868899575061946.87796408
507534.6062474035061933.24876925507502.5862400945061872.92563385
507489.092765643 5061802.7818117507543.4402157655061773.31973692
507538.6188802165061677.34811008507456.0463458485061567.74752948
 507530.214633555061481.71082569507515.4431412675061447.24230059
507551.3503811795061357.46695015507571.1209366775061341.49568372
507584.7522856085061298.44790413507628.0004451645061264.04899734
  507630.55374735061195.14815732507692.3505142555061136.16298923
507705.9694529945061104.18812903507747.9285226875061115.31422058
507778.8507509945061067.36499143507820.8207495095061069.87844218
507975.2783812385060956.87090588508506.6647192685060561.34589106
508541.2487797985060550.31814178508736.4888831865060427.53134891
508772.3589535055060380.81928182508820.5542737285060349.50703826
508854.6066561485060279.41064037508873.7613885845060267.13171505
508891.6736332255060260.38883987508902.1937503225060242.55985396
508881.8682255685060209.91927683508886.8332335925060191.46689219
508951.0956033265060150.33251373508967.1925305155060118.35890978
508977.1338593755060074.06977143509019.1510384315060048.28660004
509043.9049455955060007.09519319509071.1151904895059975.13725701
509102.0011405635059962.87551343509152.7096535165059905.10764513
509185.4518418755059890.38751834509200.916921476 5059869.4885279
509239.9234189155059793.85796038509256.6227656955059773.57597172
509289.3347157655059779.77819977509324.5575323265059758.29325736
509367.7853073755059750.97375119509380.1570173585059734.99298144
509437.8382359255059560.31500242509450.239418407 5059525.2571201
 509481.786929635059485.92045562509514.5452461225059462.58565896
 509580.003045225059454.68584369509589.3020726755059430.08453747
509629.4871856565059395.68446719 509657.909342745059382.18973147
509664.1245424385059355.73727936509696.3175252855059299.78574061
509743.3659987795059220.47145529509728.6071035275059182.29275911
509760.7716927645059145.41798101 509763.295421885059110.95836058
509788.0396035785059081.45679792509788.2424715135058952.21642809
509773.5468727385058873.41679667509736.5467894955058842.58654675
509745.2202488335058824.13660045 509773.745575485058746.63397163
509741.9115068325058570.56061235  509796.3190755  5058527.562398
509786.5259481335058472.15359493509789.0848581225058415.53271245
509769.4362396115058344.10456568509800.3954749675058291.22010167
509864.6532729145058269.16325353509937.6001085085058220.03844268
510015.5694463495058120.44973448510008.3307706165058013.33675128
 510004.811049725057897.61033654510066.6569977485057842.31083975
510076.5401216495057841.09570224510116.0127629975057873.16796513
510135.8049411245057854.73374235510150.7468107865057780.89209102
510196.5682495035057707.10000232510230.0894088585057602.50873506
510248.8599537655057454.80083496510298.4922521215057319.45236038
510254.1994590215057212.26435781510228.3315200545057167.89789566
510203.6058751965057180.16966494510186.3522545095057155.51694083
510273.1318653795056967.27835017510297.9946369525056872.51113653
 510369.809748895056772.89522279  510395.85679365056710.14173426
510381.204463275 5056606.6859041510403.5563776485056537.76788901
 510449.422884075056444.26119882510519.8272267575056452.99905545
510610.1361906595056380.50086209510565.8045014215056295.45976642
510573.2756038765056260.99318164510601.6806131065056267.19838898
 510619.058680095056219.20301146510726.745054975  5056102.401837
510750.2998988885056055.64762263 510780.096426615055971.96018591
510848.2101307445055879.71789769510885.392021927 5055813.2823716
510877.0114515065055659.32927959510783.2545907545055574.19096097
510769.7332027765055533.52668275510719.1243883825055503.88236784
510715.6057159595055394.26713171510663.8103716355055335.06257752
510636.7123587985055284.52110917 510675.099591295055236.55419581
510737.0794727385055122.12011481510754.5381156415055029.77737784
510775.6895423715054946.06134672510714.0622799395054853.57991808
510737.6767806045054774.79242438510655.1337878095054626.84575315
510657.7440950095054545.55582809510682.6011679025054463.07111318
510703.8548654945054320.22204949510734.9520001345054203.25474362
510776.0011408215054049.34753251 510825.590591615053960.74030374
510836.7907317165053916.41276347 510819.618034285053841.23881136
510824.820099327 5053692.1886795 510873.080580925053659.01088881
510908.9990202045053615.95634651510920.2520519565053542.06017165
510943.8028347145053503.91119784 510989.719095245053399.27557998
511057.787516481 5053350.1168707 511099.930793335053283.66457579
511135.9166381315053204.88084954
Rch Text X Y=508644.2835313,5060385.2788725
Reverse River Text= 0 

Type RM Length L Ch R = 1 ,11936   ,1096.6,1096.6,1096.6
XS GIS Cut Line=2
508483.5295994585062482.16349956507177.1871413435062372.79529376
Node Last Edited Time=Oct/10/2025 12:58:23
#Sta/Elev= 129 
       0  284.97     8.6  282.75    12.4   281.9    14.5  281.42    18.6  280.53
    23.8  279.64    28.6  278.84    33.1  278.01    34.4   277.8    38.7     277
    42.3  276.27    45.3   275.7    48.7  275.02    51.6  274.41    56.3   273.5
    58.7  272.98    60.8  272.52    67.2  271.24    70.1  270.61    78.8   268.8
    88.6  266.87    97.9  265.26   118.9  261.64     122  260.81   125.6  259.64
     129  258.75   132.9  255.91   134.9  254.54     139  251.55   144.2  250.69
     149  249.84   159.1  249.65   179.2  249.36   190.5  249.16   236.8  248.47
   249.4   248.3   259.4  248.21   279.5  248.08   299.6  247.88   389.9  247.45
   399.9  247.37     410  247.23   412.7  247.25   417.7  247.33     420  247.35
   440.1  247.83   450.1   247.9   515.4246.7213   525.2246.5444   540.4  246.27
   542.3  246.26   550.4  246.16   560.9  246.27   590.6  246.64     701  248.51
     711   248.7     721  248.99   727.5  249.16   731.1  249.24   741.1  249.43
   751.1  249.66   761.2  249.76   771.2  249.83   781.3  249.92   783.1  250.01
   792.4  250.56   801.3  251.19   810.9  251.72   811.4  251.76   811.9  251.79
   829.4  252.85   871.6  255.34   940.5  259.48   949.8  259.93   951.8     260
   954.3  260.03     959  260.06   961.9  260.09   971.9  260.15    1002  260.16
  1012.1  260.57  1014.6  260.91    1020  261.54  1022.1  261.81  1052.2  266.47
  1060.9  267.92  1062.2  268.15  1072.3  270.29  1082.3  274.25  1092.3  278.55
  1097.9  279.98  1102.4  281.09  1107.2  281.15  1107.6  281.15  1112.4  281.19
  1116.4  280.37  1118.6  279.87  1122.4  279.07  1125.7  278.17  1129.5  276.99
  1142.5  273.35  1144.2  273.28  1151.4   273.9  1152.5  273.88  1153.5  274.13
  1162.4  276.74    1172  279.41  1172.6  279.65  1173.3  280.08  1181.3  284.09
  1182.7  284.92  1184.3  285.58  1190.5  289.03  1192.7  289.83  1195.3  290.07
  1199.8  290.59  1202.7  290.86  1222.8  292.06  1232.8  292.68  1242.9  293.32
  1246.1  293.56    1250  293.79  1252.9  293.99  1255.3  294.18    1261  294.55
  1273.9  295.58  1284.5  296.49    1293  297.19  1310.9  298.45
#Mann= 1 ,-1,0
       0    .035       0
Bank Sta=515.4,525.2
XS Rating Curve= 0 ,0
XS HTab Starting El and Incr=246.6944,0.3, 100 
XS HTab Horizontal Distribution= 5 , 5 , 5 
Exp/Cntr(USF)=0,0
Exp/Cntr=0.3,0.1

Type RM Length L Ch R = 1 ,10839   ,1057.7,1057.7,1057.7
XS GIS Cut Line=2
508550.3657252215061844.18229908506994.9067983515061728.73808185
Node Last Edited Time=Oct/10/2025 12:58:23
#Sta/Elev= 195 
       0  312.07    15.4   311.3    25.4  310.94    35.5  309.94    45.5  308.68
    55.5  307.37    60.3  306.63    60.9  306.52    65.5  305.77    75.6  303.86
    85.6  301.87    88.3  301.25    93.3  300.13    95.6   299.6    97.6  298.89
   105.7  296.03   115.7  292.24   116.3  291.92   125.6  287.03   134.9  282.25
   135.7  281.88   136.7  281.66   144.3  279.71   145.8  279.35   155.8  276.05
   158.3  274.86   162.9  272.84   165.8  271.48   169.2  269.56   172.3  267.59
   175.8  265.57     180  263.45   181.6  262.75   185.9  260.52   190.9  260.04
   195.9  259.51     246   257.4   265.6  256.61   276.1  256.14   288.3  255.57
   299.1  255.11   316.2  254.49   326.3  254.14   336.3  253.83   377.6   252.6
   416.5  251.39   426.5  251.19   480.3  250.55   496.7  250.32   506.8  250.15
   517.7  249.79   566.9  247.79   576.9  247.42   580.8  247.33     583  247.26
     587  247.17     597  247.05   601.7  247.06   602.4  247.08     607  247.11
   617.1  247.28   627.1  247.49   637.1  248.75     639  249.06   645.7  249.98
   647.1  250.21   667.2  251.43   676.3  252.08   687.3  252.89   689.1  252.96
     695   253.1   697.3   253.2   707.3  253.11   797.6  252.17   807.6  252.03
   817.6  251.56   827.6  251.03   829.9  250.97     835  250.77   837.7   250.7
   847.7  250.55   877.8  250.26   887.8  250.07   900.4  249.63   909.7  249.33
     919  248.99     948  247.85     949   247.8     958  247.42   965.7  246.99
     968  246.86   984.4  245.77   998.1  244.83    1006244.3718  1008.1  244.25
  1012.4   244.4  1013.8 244.435    1014  244.44  1018.2  244.59  1038.2  245.77
  1049.7  246.42  1059.1  246.93  1077.7   247.9  1087.1  248.45  1098.4  249.18
  1100.7  249.37  1105.7  249.88  1108.4  250.09  1111.5  251.21  1115.1  253.05
  1118.4  254.19  1122.3  256.27  1124.4  257.44  1128.5  259.59  1138.5  261.93
  1143.1  262.24    1144  262.24  1148.5   262.5  1152.4  262.37  1154.8  262.18
  1158.5  262.03  1161.7  262.05  1165.7  261.95  1168.6  261.95  1171.1  262.24
  1176.5  262.31  1178.6  262.52  1188.6   263.9  1189.8  263.99  1198.2   265.2
  1198.7  265.25  1199.1  265.25  1204.9  266.27  1208.4  267.03  1208.7  267.12
    1209  267.24  1217.8  268.87  1218.7  269.31  1219.8  270.12  1227.1  274.51
  1228.7  275.75  1230.6  276.72  1236.4  279.37  1238.8  280.57  1241.5  281.85
  1245.8  284.13  1248.8  285.53  1252.3  286.86  1255.1  288.43  1258.8  289.73
  1263.1  290.27  1264.4  290.54  1268.8  291.02  1278.9  291.92  1283.1  292.59
  1284.8  292.82  1288.9  293.46  1292.4   294.1  1295.6  294.61  1298.9  295.19
    1319  298.98  1320.4  299.34  1328.1  301.45    1329  301.67  1329.8  301.91
    1339  305.19  1348.4  308.25  1349.1  308.47  1357.8  310.77  1359.1  311.11
  1389.2   317.4  1393.1  318.21  1395.1  318.63  1399.2  319.46  1409.2  320.69
  1429.3  322.49  1432.5  322.72  1436.4  322.88  1439.3  323.07  1441.8     323
  1447.3  322.65  1449.3  322.58  1468.9  321.18  1479.1  320.43  1479.4  320.39
  1488.5  319.11  1489.5  318.96  1490.6  318.75  1497.8   317.3  1499.5     317
  1509.5  314.82  1516.5  313.81  1519.5  313.35  1529.6  313.08  1559.7  312.65
#Mann= 1 ,-1,0
       0    .035       0
Bank Sta=1006,1013.8
XS Rating Curve= 0 ,0
XS HTab Starting El and Incr=244.4,0.3, 100 
XS HTab Horizontal Distribution= 5 , 5 , 5 
Exp/Cntr(USF)=0,0
Exp/Cntr=0.3,0.1

Type RM Length L Ch R = 1 ,9781    ,934.4,934.4,934.4
XS GIS Cut Line=2
508611.1258395525061382.40543017507499.2157472975060762.65226399
Node Last Edited Time=Oct/10/2025 12:58:23
#Sta/Elev= 152 
       0  291.54       7   291.3     9.9  291.25    15.2  291.21    18.5   291.2
      32  291.28    39.4   291.3    52.8  291.23    83.5  291.55    90.8  291.66
    98.6   291.8     110  291.92   117.9  291.86   121.5  291.82   127.6   291.6
   132.9  291.43   134.9  291.33   144.4  290.92   149.6  290.63   155.8  290.32
     157  290.22     159  289.94   164.3  289.03   167.3   288.3   179.5  284.38
   186.4  281.87   190.2  280.53   193.7   279.6   200.1  278.56   201.1  278.38
   201.6  278.31   203.6  277.99   208.4  277.13   213.1  276.57   220.6  275.29
   223.1  274.83   224.5  274.63     236   272.7   237.8  272.41   241.1  271.84
   247.4  270.84   252.5  270.35   255.3  270.22   258.9     270   259.9  269.98
   261.7  269.97   364.4  269.57   370.2  269.51   377.5  269.49   384.8  269.49
   392.2   269.4   396.3  269.41   405.5   269.4   406.9  269.38   414.3  269.32
   419.2  269.34     426  269.32     429  269.28   436.3  269.25   442.1  269.27
   446.5  269.25     451  269.19   453.5   269.2   458.4  269.18   467.1  269.18
   473.1  269.11   476.4  269.12   487.6  268.95   495.1  268.58   508.2  268.08
   634.8  261.01   642.1  260.67   648.1  260.45   651.9  260.35     671  259.21
   672.5  259.16   678.9  258.11   682.5  257.57     693  255.92   693.6  255.81
     695  255.38     701  253.48   705.4  252.14   708.3  250.99   713.6  249.65
   715.7  249.38   716.8  249.26   739.7  247.21   752.4   246.1   754.6  245.93
   759.8  245.53   767.1  244.88   774.1   244.4   781.8  243.64   785.5  243.36
   785.6243.3506   796.5  242.32   796.7 242.302   808.4  241.25   816.3  240.81
   818.6   240.7   819.9  240.69   824.4  240.86   825.9   240.9   831.3  241.22
   836.8  241.65   850.2  242.89   862.7  244.07   877.9  245.45   884.7  246.13
   892.1  246.81   898.4  247.38   906.8  248.22   914.1  248.92     919  249.36
   921.5  249.73   922.9  250.12   927.8  253.36   928.8  253.95   934.3   258.5
   936.2  260.63   939.5  264.52   943.5  269.32   945.8  271.83   950.9  276.35
   953.7  278.63   957.2  281.58     960  283.66   965.6  286.81   968.7  288.39
   972.9  289.26   979.6  290.09   980.1  290.18     995  290.43    1003   290.6
  1009.7  290.66  1014.5  290.75  1024.4  290.84  1031.3  290.92  1031.8  290.92
  1037.4     291  1046.5  291.08  1106.1   291.7  1117.5   291.8  1127.3  291.84
  1140.4  291.94  1151.9  291.99  1247.6  291.92  1252.3  291.87  1259.6  291.84
  1268.1  291.84    1273  291.77
#Mann= 1 ,-1,0
       0    .035       0
Bank Sta=785.6,796.7
XS Rating Curve= 0 ,0
XS HTab Starting El and Incr=242.452,0.3, 100 
XS HTab Horizontal Distribution= 5 , 5 , 5 
Exp/Cntr(USF)=0,0
Exp/Cntr=0.3,0.1

Type RM Length L Ch R = 1 ,8847    ,970.6,970.6,970.6
XS GIS Cut Line=2
 509176.194902835060786.95630972507906.3085133145059948.46673196
Node Last Edited Time=Oct/10/2025 12:58:23
#Sta/Elev= 127 
       0   245.3     1.4     245     2.3   245.1     9.5  245.77    13.4  245.95
    21.7  247.49    23.9  247.89    25.4  248.12    31.1   249.2    37.4  250.12
    39.8   250.9    45.6   252.8    49.4   253.9    52.8  255.05      58  257.04
    61.3  258.29    67.2  259.08    73.3  260.32    81.7   260.6    85.3  260.79
    88.9   260.9    97.3  261.21   109.3  261.61   145.2  262.78   148.7  262.87
   153.8  262.95   157.2  262.95     185  262.59   265.1   261.8   275.8  261.68
   276.5  261.66   283.8  261.45   312.6  260.55   319.8  260.36   327.1   260.2
   330.2  260.14     337  260.04   341.5  259.02   348.4  257.32   348.7  257.22
   348.9  257.15   360.9  252.55   363.2  251.94   366.5  250.91   370.4  249.78
   372.9  249.12   377.6  248.45   384.9  247.24     392  246.27   396.9  245.56
   399.2  245.28   406.5  244.39   408.9  244.07   435.3   241.3   442.5  240.56
   444.8  240.35   449.8  239.92     457  239.36   468.8   238.7   475.4  238.31
   478.6  238.16   485.9  237.98   492.7  237.86   566.2  236.79   572.5  236.71
   576.6  236.64   584.3  236.52   585.5236.5154   586.9  236.51   594.1  236.41
   596.8236.3618   602.5  236.26   608.6  236.24   612.6  236.17   615.8  236.13
   620.6  236.04   630.2  235.98   638.7  235.83   644.6  235.82   651.9  235.76
   656.9  235.66   666.3  235.61     675  235.51   687.9  235.45   695.2  235.39
   708.4  235.34   720.4  235.49   802.1  237.25   926.1  239.89   933.3  240.07
   948.1  240.49     955  240.73   960.1  240.93  1001.7  242.71  1079.9  245.79
  1128.8  247.89  1175.8  249.74  1178.7  250.19  1183.2  251.48    1186  252.38
  1187.8  253.24  1193.2  256.66  1196.7  258.46  1199.8  260.14  1200.4  260.41
  1201.4  260.62  1207.6  262.51  1211.7  263.81  1214.8  264.74  1219.5  266.27
    1222  267.33  1223.7   267.9  1229.3  269.34  1231.9  269.68  1235.7  270.27
  1236.5  270.34  1237.6  270.41  1247.7   270.9  1250.9  271.13  1258.1  271.59
  1259.7  271.67  1319.6   276.1  1323.1  276.32  1328.4  276.59  1330.3  276.68
  1331.6  276.71  1521.7  277.14
#Mann= 1 ,-1,0
       0    .035       0
Bank Sta=585.5,596.8
XS Rating Curve= 0 ,0
XS HTab Starting El and Incr=236.5118,0.3, 100 
XS HTab Horizontal Distribution= 5 , 5 , 5 
Exp/Cntr(USF)=0,0
Exp/Cntr=0.3,0.1

Type RM Length L Ch R = 1 ,7876    ,879.4,879.4,879.4
XS GIS Cut Line=2
509777.7200347055060033.53089202508362.0093707965059316.56154292
Node Last Edited Time=Oct/10/2025 12:58:23
#Sta/Elev= 99 
       0   270.7    47.9  270.68    59.1  270.56    70.3   270.3    75.3  270.23
    82.8  270.17   112.5  270.16   284.5  270.01   291.1  269.96   294.5  269.88
   298.6  268.92   304.8   267.2   305.7  266.95   306.6  266.65   316.9  263.41
   320.9   262.1   328.1  259.63   335.8  255.95   339.3   254.2   343.2  252.57
   350.5  249.69   380.4  246.19   395.2  244.49   410.2  242.69   417.6  241.83
     429  240.58   432.5  240.33   440.2  239.86   469.7  239.13   550.3237.0169
   586.1236.0783   619.6   235.2   630.8  234.96   653.2  234.52   663.2  234.39
     698  234.19     705  234.19   707.8  234.23   715.3  234.38   944.6  239.39
   955.8  239.53   968.2  239.51   978.3  239.52   983.1  239.62   989.5  239.73
  1000.7  240.03  1005.5  240.18  1014.9  240.42  1020.3  240.61  1023.1  240.66
  1027.8  240.78    1037  240.98  1042.7  241.19  1050.1  241.36  1054.2  241.44
  1059.2  241.54    1065  241.77  1067.9  241.84  1072.4  241.96  1076.9  242.03
  1081.3  242.12  1087.3  242.36  1090.3  242.44  1094.7  242.56  1101.6  242.68
  1103.4  242.71  1109.6  242.96  1117.1  243.18  1125.6  243.31    1132  243.56
  1139.4  243.78  1147.7  243.93  1154.3  244.16  1157.6  244.26  1161.7  244.52
  1168.8   244.8  1169.2  244.84  1169.8  244.93  1176.6  245.87    1180  246.28
    1184  246.83  1191.2  247.61  1198.9  248.74  1202.4  249.17  1206.4  249.57
  1213.7  250.21  1236.1  251.71  1258.5  252.75  1482.7  262.16  1493.9  262.49
  1505.1  261.97  1527.5  260.68  1531.1  260.52  1533.8  260.39  1538.7  260.26
  1541.2  260.44  1546.1  261.02  1548.6  261.35  1586.9  266.77
#Mann= 1 ,-1,0
       0    .035       0
Bank Sta=550.3,586.1
XS Rating Curve= 0 ,0
XS HTab Starting El and Incr=236.2283,0.3, 100 
XS HTab Horizontal Distribution= 5 , 5 , 5 
Exp/Cntr(USF)=0,0
Exp/Cntr=0.3,0.1

Type RM Length L Ch R = 1 ,6997    ,834.8,834.8,834.8
XS GIS Cut Line=2
510190.8888121555059310.48553148508987.838548404 5058873.0127083
Node Last Edited Time=Oct/10/2025 12:58:23
#Sta/Elev= 80 
       0  260.35     6.3   260.4    55.7  260.59    91.4  260.79   165.9  261.06
   176.5  261.07   219.1     261   227.4  260.95   258.6  260.63   279.4  260.38
   293.6  260.24   297.6  260.16   301.7  260.02   304.2  259.95   305.4  259.85
   308.7   259.3   313.2  258.35   314.8  257.87   318.4  256.79     321     256
   325.5  254.57   328.8  253.58   336.1   251.3   337.9  250.57   344.4  247.71
   346.8  246.52   351.8  243.74   352.2   243.5   357.4  240.88     360  239.74
   367.2  237.53   368.5  237.16   375.6  234.88   378.7  234.03   383.4  232.57
   389.3  230.79   391.2  230.54   396.5  230.16     399  229.99     400  229.95
   458.8229.6551   463.8  229.63   468.8229.6113   474.5  229.59   485.1  229.58
   506.4  229.66   542.8  229.83     572  229.89   591.5  229.97   594.1  230.15
   602.1  230.61   659.8  236.28   664.3  236.76   672.1  237.64   679.9  238.57
   686.2  239.39   687.3  239.52   687.7  239.64   689.1  240.11   695.6  242.47
   697.9  243.43   703.4  246.14   708.5  248.59   711.2  249.11   719.2  250.14
   846.9  252.36   857.5  252.53   868.2  252.54   898.4  252.45   910.7  252.36
   921.8  252.35  1102.3   252.7  1112.9   252.8  1134.2  253.07  1144.8  253.07
  1155.9  253.02  1166.1     253  1176.7  253.08  1179.3  253.13  1280.1  254.95
#Mann= 1 ,-1,0
       0    .035       0
Bank Sta=458.8,468.8
XS Rating Curve= 0 ,0
XS HTab Starting El and Incr=229.7613,0.3, 100 
XS HTab Horizontal Distribution= 5 , 5 , 5 
Exp/Cntr(USF)=0,0
Exp/Cntr=0.3,0.1

Type RM Length L Ch R = 1 ,6162    ,1053.9,1053.9,1053.9
XS GIS Cut Line=2
510567.6015210075058563.13612521509115.4347884995058235.03150783
Node Last Edited Time=Oct/10/2025 12:58:23
#Sta/Elev= 119 
       0  251.47     2.7  251.49    12.9  251.53    23.2  251.47    33.4  251.46
    43.7  251.58    74.4  251.98    84.7  252.04   269.2  251.94   279.5   251.9
   289.7  251.81   297.3   251.7   330.7  251.21     341  250.94   351.2  250.47
   361.5  249.91   371.7  248.32     382  246.54   392.2  244.78   393.7  244.57
   399.9  243.77     402  243.53   410.4  243.03   412.7  242.91   418.7  242.67
   427.1  242.38   429.7  242.26   435.5  242.05     443  241.63   445.3  241.53
   453.8  241.02     464  240.53   468.9  240.21   474.3  239.92   484.5  238.09
   490.7   236.4     494  235.51   494.8   235.3     496  234.94   502.4  233.16
     505  232.32   509.2  231.35   510.7  231.02   515.3  229.94   560.9  229.06
   617.8  227.94   619.5  227.89   627.8  227.54   636.2  227.33   638.3  227.31
   648.5  227.42   658.8  227.57   771.6  229.28   802.1229.7784   811.2229.9271
   812.6  229.95   820.2  230.42   822.8  230.56   836.9  231.66   853.6  232.93
     862   232.9   863.8  232.86   874.1   232.3   878.7   232.1   884.3   231.8
   887.1  231.77   893.3  231.59   894.6  231.56     899  231.56   904.8  231.58
   906.5  231.68   912.1  231.87   915.1  232.09   920.5  232.62   925.4  233.05
   928.9  233.18   944.4  233.67   945.6  233.72     954  234.19   956.1  234.33
   959.5  234.59   962.3  234.79   970.7  235.46     979  236.17   986.9  236.88
   997.1  237.85   999.3  238.01  1004.1  238.42  1007.4  238.65  1017.6  239.12
  1029.2  239.64  1035.2  239.87  1037.6  239.93  1038.1  239.94  1045.9  240.23
  1048.4  240.37  1058.6  240.73  1079.1  241.23  1089.4  241.37  1096.1  241.55
  1099.6  241.65  1109.9  241.97  1112.8  242.04  1120.1  242.17  1129.6  242.22
  1130.4  242.24  1137.9  242.47  1150.9   242.9  1154.7     243  1161.2  243.15
  1171.4  243.33  1181.7  243.72  1294.4  248.45  1304.7  248.85  1313.5  248.92
  1314.9  248.94  1345.7  248.88  1355.4  248.87  1488.8  248.88
#Mann= 1 ,-1,0
       0    .035       0
Bank Sta=802.1,811.2
XS Rating Curve= 0 ,0
XS HTab Starting El and Incr=229.9284,0.3, 74 
XS HTab Horizontal Distribution= 5 , 5 , 5 
Exp/Cntr(USF)=0,0
Exp/Cntr=0.3,0.1

Type RM Length L Ch R = 1 ,5108    ,698.4,698.4,698.4
XS GIS Cut Line=2
511102.2905271195057785.40666178509407.0833372875057426.92198723
Node Last Edited Time=Oct/10/2025 12:58:23
#Sta/Elev= 57 
       0  248.15    17.7  247.56    68.8  245.84    99.4  244.73   109.7  244.47
   119.9  243.95   130.1  243.09     133  242.86   141.5  242.27   149.9  241.83
   181.2  240.34   183.7  240.15   191.4  239.48   195.3  238.85   242.5  230.98
   251.2  230.09   252.8  229.97   293.4  229.66   335.5  229.37     344  229.29
     355  229.11   518.5  225.96   528.7  225.79   702.5  223.47   722.9  223.18
   757.4  222.63   763.8  222.54   765.8  222.52     774  222.53   823.6  222.61
   887.4222.6262   895.2222.6282  1060.2  222.67  1070.5  222.69  1080.7  222.89
    1272  227.92  1305.5  228.79  1346.4  229.76  1356.6  229.97  1366.9  230.26
  1373.3  230.88  1381.7  231.76  1382.9   231.9  1387.3  232.37  1390.2   232.6
  1397.5  233.11  1407.7  233.64  1432.3  234.83  1438.4  235.12    1452  235.74
  1466.1  236.42  1489.5  237.52  1530.4  239.48  1540.6  239.94  1550.8  240.11
  1612.2  240.77  1732.7  242.21
#Mann= 1 ,-1,0
       0    .035       0
Bank Sta=887.4,895.2
XS Rating Curve= 0 ,0
XS HTab Starting El and Incr=222.7762,0.3, 85 
XS HTab Horizontal Distribution= 5 , 5 , 5 
Exp/Cntr(USF)=0,0
Exp/Cntr=0.3,0.1

Type RM Length L Ch R = 1 ,4410    ,505.6,505.6,505.6
XS GIS Cut Line=2
511570.1434074665057335.78181573509637.9717717445056825.39685535
Node Last Edited Time=Oct/10/2025 12:58:23
#Sta/Elev= 65 
       0  239.86     5.3  239.48    36.3  237.59    46.7  236.86   129.4  230.63
   132.6   230.5   135.8  230.32   139.8  230.21   143.9  230.37   150.1  230.67
   250.3  236.15   253.6  236.31   258.5  236.39   263.9  236.42   266.7  236.31
   277.2  235.86   491.4   225.3   501.8  224.82   512.1  224.38   522.5  224.25
     719  223.27   786.2  222.99   863.8  222.58   915.5  222.26    1143   220.7
  1153.4   220.6  1163.7  220.34  1166.7   220.3  1172.8  220.31  1174.1   220.3
  1267.2  222.94  1277.5  223.22  1287.9  223.48  1348.2224.6877  1356.8224.8599
  1502.1  227.77  1556.8  228.85  1559.4  228.89  1567.1  228.99  1567.6  228.99
  1569.3     229  1720.9  229.92  1722.3  229.93    1723  229.94  1725.9  229.96
  1732.6  230.03    1735  230.15  1742.9  230.54    1813  234.62  1815.3  234.75
  1819.3  234.91  1821.2  235.01  1825.7  235.15  1829.4  235.25    1836   235.4
  1856.7  236.06  1870.3  236.45  1875.6  236.63  1877.4  236.69  1878.5  236.71
  1882.5  236.83  1889.6  237.02  1894.8  237.14  1908.4   237.5  1998.4  239.74
#Mann= 1 ,-1,0
       0    .035       0
Bank Sta=1348.2,1356.8
XS Rating Curve= 0 ,0
XS HTab Starting El and Incr=224.8377,0.3, 50 
XS HTab Horizontal Distribution= 5 , 5 , 5 
Exp/Cntr(USF)=0,0
Exp/Cntr=0.3,0.1

Type RM Length L Ch R = 1 ,3904    ,880.3,880.3,880.3
XS GIS Cut Line=2
511624.8275103645056874.00494681509637.971771744 5056302.8598721
Node Last Edited Time=Oct/10/2025 12:58:23
#Sta/Elev= 51 
       0  231.15    20.6  231.27      31  231.38    39.5  231.29    41.4  231.24
     105  228.45   322.2  218.97   332.8  218.53   343.2  218.27   430.8  216.23
   447.2  215.97   466.9  215.69   611.7  214.03   629.4  213.81   634.5  213.73
   644.9  213.54   707.4  212.31   717.8   212.2   842.6   212.3     853  212.31
   855.7  212.33   863.4  212.33   873.8  212.44   884.2   212.6  1113.2  216.69
  1123.6  216.89  1259.8219.7179  1268.4219.8964  1435.7  223.37  1456.5  223.77
  1466.9   223.9  1469.9  223.91  1476.1     224  1477.3  224.01    1478  224.02
  1552.8  225.71  1736.6  229.98  1737.5  229.99  1747.9  230.05  1752.8  230.03
  1758.3  230.01  1768.7  230.13  1878.6  231.93  1884.9  232.05  1903.9  232.43
  1954.8  233.54  1966.4  233.81  1987.2  234.47  1997.6  234.81    2008  235.21
  2067.3  237.63
#Mann= 1 ,-1,0
       0    .035       0
Bank Sta=1259.8,1268.4
XS Rating Curve= 0 ,0
XS HTab Starting El and Incr=219.8679,0.3, 59 
XS HTab Horizontal Distribution= 5 , 5 , 5 
Exp/Cntr(USF)=0,0
Exp/Cntr=0.3,0.1

Type RM Length L Ch R = 1 ,3024    ,674.9,674.9,674.9
XS GIS Cut Line=2
511539.7633503015056023.36334618509838.4801490365055719.56277453
Node Last Edited Time=Oct/10/2025 12:58:23
#Sta/Elev= 43 
       0  217.62    54.4  218.19    88.9  218.49   252.6  219.72   258.8  219.79
   261.3  219.84   360.4  221.75   370.5   221.9   378.9  221.97   411.2  222.22
   421.3  222.28   431.5  222.19   445.8  222.01   450.9  221.93     462  221.64
   634.6  216.21   640.5  216.05   644.8  215.95     655  215.95   710.8216.1698
   720.9216.2096   837.8  216.67     848  216.64  1000.3  215.75  1002.5  215.75
  1011.1  215.81  1081.6  216.57  1091.8  216.84  1132.4  218.27  1142.6  218.56
    1173  219.27  1193.3  219.77  1203.5  220.05  1213.7  220.49  1355.9  226.89
  1364.5  227.27    1366  227.32  1376.2  227.54  1528.6  229.81  1569.2  230.39
  1652.7  231.46    1665  231.58  1728.2  232.13
#Mann= 1 ,-1,0
       0    .035       0
Bank Sta=710.8,720.9
XS Rating Curve= 0 ,0
XS HTab Starting El and Incr=216.3198,0.3, 53 
XS HTab Horizontal Distribution= 5 , 5 , 5 
Exp/Cntr(USF)=0,0
Exp/Cntr=0.3,0.1

Type RM Length L Ch R = 1 ,2349    ,428.5,428.5,428.5
XS GIS Cut Line=2
 511655.20756753 5055549.4344544510087.5966177935055203.10180272
Node Last Edited Time=Oct/10/2025 12:58:23
#Sta/Elev= 42 
       0  215.83    20.7  215.46    30.9  215.36   317.7  214.28   327.9  214.33
   368.9   214.9   379.1  215.01   389.4  214.86   409.9  214.42   420.1  214.23
   423.3  214.19   430.3  214.14   829.7  212.55     840  212.61  1010.5  214.01
  1012.5214.0322  1014.1  214.05  1018.8  214.13  1023.9214.2514  1027.2  214.33
  1044.8  214.88  1055.1  215.29  1065.3  215.79  1136.3  219.38  1147.2  219.91
  1151.2  219.99    1153  220.03  1167.7  220.27  1341.8  224.13    1352  224.32
  1362.3   224.4  1413.1  224.71  1423.7  224.88  1495.4   228.3    1497  228.34
  1505.7  228.68  1536.4  229.24  1567.1  229.91  1577.3  230.28  1587.6  231.42
  1597.8  232.33  1605.4  232.95
#Mann= 1 ,-1,0
       0    .035       0
Bank Sta=1012.5,1023.9
XS Rating Curve= 0 ,0
XS HTab Starting El and Incr=214.1822,0.3, 63 
XS HTab Horizontal Distribution= 5 , 5 , 5 
Exp/Cntr(USF)=0,0
Exp/Cntr=0.3,0.1

Type RM Length L Ch R = 1 ,1920    ,411.9,411.9,411.9
XS GIS Cut Line=2
511582.2954303335055087.65758549510099.7486406595054820.31308243
Node Last Edited Time=Oct/10/2025 12:58:23
#Sta/Elev= 58 
       0  212.98    27.7  212.79   261.4  211.45   271.6   211.4   312.3  211.28
   322.4  211.27   465.8  211.47   482.1  211.48   611.2  211.19   628.4  211.17
   667.9  211.18   678.1  211.21   708.5  211.35   712.4   211.4   714.5  211.45
   718.7  211.49   728.9  211.72   816.5214.0232   828.8214.3466  1013.4   219.2
  1024.4  219.57  1033.7  219.96  1041.6  220.04  1043.9  220.08  1104.8   220.5
    1115  220.47    1176  220.08  1186.1  219.98    1188  219.94  1196.3  219.66
  1206.4   219.2  1216.6   218.9  1220.6   218.9  1222.4  218.87  1226.8   218.9
    1231  219.06    1233  219.15  1236.9  219.31  1245.4  219.74  1247.1  219.82
  1248.2  220.02  1254.7   221.6  1256.9  222.17  1257.3   222.3  1257.8  222.54
  1267.4  226.61  1270.2  227.51  1274.1  228.94  1277.6  229.98  1282.6  230.49
  1287.7  230.98  1291.3  231.24  1299.9  231.84  1308.1  232.36  1358.9   235.5