Geom Title=geo1
Program Version=6.60
Viewing Rectangle= 510951.78528353 , 512184.324666984 , 5055970.73976564 , 5053071.38863 

River Reach=River 1         ,Reach 1         
Reach XY= 23 
511745.5328685835055838.95107766511740.0644582935055625.68307636
511794.7485611915055472.56758824511740.0644582935055434.28871622
511756.4696891625055171.80502231511679.9119451055055138.99456057
511619.7594319185054974.94225188511515.8596364125054756.20584028
511401.0230203275054674.17968594511368.2125585885054635.90081391
 511318.996865985054521.06419782511346.3389174295054329.66983768
 511318.996865985054192.95958044511286.1864042415054138.27547754
511286.186404241   5053996.09681511236.9707116335053897.66542479
511269.781173372 5053837.5129116511220.5654807645053728.14470581
511291.6548145315053635.18173088511275.2495836625053580.49762798
  511308.06004545053367.22962668511286.1864042415053307.07711349
511138.5393264175053203.17731799
Rch Text X Y=511593.784483,5055180.0076377
Reverse River Text= 0 

Type RM Length L Ch R = 1 ,2954    ,310.7,310.7,310.7
XS GIS Cut Line=2
512074.1588091815055788.95587628511290.2863594295055812.49558948
Node Last Edited Time=Oct/10/2025 13:45:16
#Sta/Elev= 21 
       0  223.13    59.2  219.22    63.3  219.03    65.1  218.97    69.2  218.78
    79.2  218.76   296.6219.0434   309.3  219.06   319.3   219.1   329.3     219
   349.3   218.7   365.9 218.434     549   215.5   558.7  215.41   559.4  215.41
   569.4   215.5   669.5  216.52   679.5  216.69   756.2  218.27   769.5  218.53
   784.2  218.79
#Mann= 1 ,-1,0
       0   -9999       0
Bank Sta=296.6,365.9
XS Rating Curve= 0 ,0
XS HTab Horizontal Distribution= 5 , 5 , 5 
Exp/Cntr(USF)=0,0
Exp/Cntr=0.3,0.1

Type RM Length L Ch R = 1 ,2643    ,386.7,386.7,386.7
XS GIS Cut Line=2
512076.5127805015055497.06343252511224.375162452 5055494.7094612
Node Last Edited Time=Oct/10/2025 13:45:19
#Sta/Elev= 20 
       0  223.29     1.5  223.29    21.5  223.06    33.5  223.02    41.5  223.01
    49.6  222.81    51.5  222.75   121.5   220.1   131.5  219.86   253.1217.9004
   326.2216.7223   391.5  215.67   401.5  215.55   412.4  215.49   721.5  214.32
   731.5  214.34   791.4  215.34   801.5  215.47   811.5  215.34   852.1  214.65
#Mann= 1 ,-1,0
       0   -9999       0
Bank Sta=253.1,326.2
XS Rating Curve= 0 ,0
XS HTab Horizontal Distribution= 5 , 5 , 5 
Exp/Cntr(USF)=0,0
Exp/Cntr=0.3,0.1

Type RM Length L Ch R = 1 ,2256    ,349.2,349.2,349.2
XS GIS Cut Line=2
512128.3001495545055143.96773444511203.1894205675055179.27730425
Node Last Edited Time=Oct/10/2025 13:45:21
#Sta/Elev= 13 
       0  213.91   113.4  212.72   123.4   212.7   133.4  212.83   243.5  215.12
   253.5  215.27   355.6214.6877   457.6 214.106   663.8  212.93   693.8  212.77
   803.9  212.28     904  212.11   925.8  212.14
#Mann= 1 ,-1,0
       0   -9999       0
Bank Sta=355.6,457.6
XS Rating Curve= 0 ,0
XS HTab Horizontal Distribution= 5 , 5 , 5 
Exp/Cntr(USF)=0,0
Exp/Cntr=0.3,0.1

Type RM Length L Ch R = 1 ,1907    ,406.5,406.5,406.5
XS GIS Cut Line=2
512078.8667518225054845.01337672511184.3576500035054877.96897521
Node Last Edited Time=Oct/10/2025 13:45:25
#Sta/Elev= 14 
       0  211.71   113.9  213.07     124  213.16     194  213.08     234  213.06
     244  213.03     264  212.55   274.1  212.49   478.3211.5789     555211.2366
   731.3  210.45   752.1   210.4   774.4   210.4   895.1  210.53
#Mann= 1 ,-1,0
       0   -9999       0
Bank Sta=478.3,555
XS Rating Curve= 0 ,0
XS HTab Horizontal Distribution= 5 , 5 , 5 
Exp/Cntr(USF)=0,0
Exp/Cntr=0.3,0.1

Type RM Length L Ch R = 1 ,1500    ,354.8,354.8,354.8
XS GIS Cut Line=2
511998.831726922 5054522.5193058511066.6590839745054557.82887561
Node Last Edited Time=Oct/10/2025 13:45:28
#Sta/Elev= 23 
       0  213.76    73.9  212.63    83.9  212.46   143.9  211.05   153.9  210.83
   157.4  210.98   160.4  211.05   163.9  211.21     174  211.99     184  211.93
     274  209.37     284  209.15     294  209.13   401.4  209.15   464.2     209
   474.2  208.98   484.2  208.98     619209.0347   704.5209.0694   804.4  209.11
   894.5  209.21   906.3  209.25   932.8  209.38
#Mann= 1 ,-1,0
       0   -9999       0
Bank Sta=619,704.5
XS Rating Curve= 0 ,0
XS HTab Horizontal Distribution= 5 , 5 , 5 
Exp/Cntr(USF)=0,0
Exp/Cntr=0.3,0.1

Type RM Length L Ch R = 1 ,1145    ,257,257,257
XS GIS Cut Line=2
511904.672874099 5054167.0696364511066.6590839745054214.14906281
Node Last Edited Time=Oct/10/2025 13:45:30
#Sta/Elev= 11 
       0  208.88   159.9  206.66   169.9  206.61   362.7  207.19   460.4  207.45
   470.4  207.46   563.1207.0677   638.6206.7482   680.7  206.57   690.8  206.63
   839.3  207.87
#Mann= 1 ,-1,0
       0   -9999       0
Bank Sta=563.1,638.6
XS Rating Curve= 0 ,0
XS HTab Horizontal Distribution= 5 , 5 , 5 
Exp/Cntr(USF)=0,0
Exp/Cntr=0.3,0.1

Type RM Length L Ch R = 1 ,888     ,325.2,325.2,325.2
XS GIS Cut Line=2
511857.593447688 5053938.7344183511007.8098009595053964.62810283
Node Last Edited Time=Oct/10/2025 13:45:34
#Sta/Elev= 14 
       0  206.47    92.6  205.19   102.6   205.1   202.7  205.07   332.7  205.35
   342.8  205.33   442.8  204.87   541.4204.5975   612.9   204.4   622.9   204.4
   626.3204.4246   662.9  204.69   672.9  204.72   850.2  204.99
#Mann= 1 ,-1,0
       0   -9999       0
Bank Sta=541.4,626.3
XS Rating Curve= 0 ,0
XS HTab Horizontal Distribution= 5 , 5 , 5 
Exp/Cntr(USF)=0,0
Exp/Cntr=0.3,0.1

Type RM Length L Ch R = 1 ,563     ,323.3,323.3,323.3
XS GIS Cut Line=2
511824.6378491995053613.88637606511028.9955428445053696.27537228
Node Last Edited Time=Oct/10/2025 13:45:36
#Sta/Elev= 12 
       0  203.09     9.7  202.98    19.7  202.96    80.1  202.97   428.9  202.68
   523.4202.5158   532.5   202.5   542.5  202.51   605.3202.8079   673.2  203.13
   683.3  203.17   799.9  203.26
#Mann= 1 ,-1,0
       0   -9999       0
Bank Sta=523.4,605.3
XS Rating Curve= 0 ,0
XS HTab Horizontal Distribution= 5 , 5 , 5 
Exp/Cntr(USF)=0,0
Exp/Cntr=0.3,0.1

Type RM Length L Ch R = 1 ,240     ,,,
XS GIS Cut Line=2
511782.2663654295053296.10024778511099.6146824625053392.61307193
Node Last Edited Time=Oct/10/2025 13:45:39
#Sta/Elev= 13 
       0  201.13     7.3  200.99    17.4   200.9   249.7  200.81   401.2  200.73
   411.3  200.78   449.3201.3016   538.5202.5259   554.1  202.74   562.9  202.79
   663.8  202.81   673.9  202.79   689.4  202.69
#Mann= 1 ,-1,0
       0   -9999       0
Bank Sta=449.3,538.5
XS Rating Curve= 0 ,0
XS HTab Horizontal Distribution= 5 , 5 , 5 
Exp/Cntr(USF)=0,0
Exp/Cntr=0.3,0.1

LCMann Time=Dec/30/1899 00:00:00
LCMann Region Time=Dec/30/1899 00:00:00
LCMann Table=0
Chan Stop Cuts=-1 



Use User Specified Reach Order=0
GIS Ratio Cuts To Invert=-1
GIS Limit At Bridges=0
Composite Channel Slope=5
